%mem=28GB
%chk=1502984803620600000001_well
%nprocshared=8
#P wb97xd/6-311++G(d,p) ! ASE formatted method and basis
Symm(None)
scf(xqc)
pop(None)
freq
opt(CalcFC, Tight)

Gaussian input prepared by ASE

0 1
C                 0.3280860000       -0.0845540000       -0.0900380000
F                -0.1780460000       -0.4693670000       -1.2536040000
F                -0.2189310000        1.0578850000        0.2778260000
S                 2.1777880000        0.1245260000       -0.2756060000
O                 2.6593440000        0.7883290000        0.8932400000
O                 2.6962810000       -1.1255250000       -0.7577260000
O                 2.1964440000        1.1959320000       -1.4707400000
F                 0.1030240000       -1.0095030000        0.8246660000
H                 2.2365780000        0.7419170000       -2.3224850000


