%mem=28GB
%chk=1993676336753150000002_well
%nprocshared=8
#P wb97xd/6-311++G(d,p) ! ASE formatted method and basis
Symm(None)
scf(xqc)
pop(None)
freq
opt(CalcFC, Tight)

Gaussian input prepared by ASE

0 2
C                -0.7090150000        0.2805810000        1.3362340000
C                -0.0584670000       -0.0512550000       -0.0381130000
F                -0.3859480000       -1.2965680000       -0.3811850000
F                -0.5192960000        0.7994250000       -0.9539410000
S                 1.8172620000        0.0408390000       -0.0466080000
O                 2.2825620000       -0.5130680000        1.1946610000
O                 2.2320110000       -0.4228430000       -1.3308770000
O                 2.0318490000        1.6270070000       -0.0367120000
F                -0.4922090000       -0.6857650000        2.2093390000
F                -0.1992970000        1.4231890000        1.8163880000
F                -2.0160150000        0.4392160000        1.1782730000


