%mem=28GB
%chk=2003846667223680600001_r13_insertion_ROR_1_2_5_8_IRC_R_prod
%nprocshared=8
#P wb97xd/6-311++G(d,p) ! ASE formatted method and basis
Symm(None)
scf(xqc)
pop(None)
freq
opt(CalcFC)

Gaussian input prepared by ASE

0 1
C                -1.0511090000       -1.0062870000        0.3497240000
C                 0.3134120000       -0.8467780000       -0.1695140000
F                 1.1657030000       -1.5046130000        0.6284810000
F                 0.3762890000       -1.3078710000       -1.4174230000
S                 0.9963200000        1.0719650000       -0.1409300000
O                 0.9292270000        1.3312470000        1.2782170000
O                 2.2650610000        0.8264650000       -0.7722000000
O                -0.0041560000        1.7681950000       -0.9682220000
F                -1.2867930000       -0.9441470000        1.5762510000
F                -2.0703650000        1.0801590000        0.1287260000
F                -2.0080440000       -1.3460910000       -0.3857620000
H                -1.3822980000        1.5792030000       -0.3354520000


