%mem=28GB
%chk=2003846667223680600001_intra_H_migration_suprafacial_6_12
%nprocshared=8
#P wb97xd/6-311++G(d,p) ! ASE formatted method and basis
Symm(None)
scf(xqc)
pop(None)
opt(NoFreeze,TS,CalcAll,NoEigentest,MaxCycle=999)

Gaussian input prepared by ASE

0 1
C                 2.3991460000       -1.6142150000       -1.4646610000
C                 2.0796120000       -0.2859530000       -0.7191520000
F                 2.2714200000       -0.4423180000        0.5902380000
F                 2.9542460000        0.6568960000       -1.0667340000
S                 0.3364960000        0.3469540000       -1.0156160000
O                -0.4983020000       -0.8136000000       -1.1580950000
O                 0.0534170000        1.3195660000       -0.0105010000
O                 0.4144210000        0.9334940000       -2.5028880000
F                 1.9887110000       -2.6830030000       -0.8071120000
F                 1.8183900000       -1.6727460000       -2.6709820000
F                 3.6961290000       -1.7833060000       -1.6828440000
H                -0.1600760000        0.1068470000       -1.8497410000



