%mem=28GB
%chk=2003846667223680600001_r12_insertion_R_2_5_6
%nprocshared=8
#P wb97xd/6-311++G(d,p) ! ASE formatted method and basis
Symm(None)
scf(xqc)
pop(None)
opt(NoFreeze,TS,CalcAll,NoEigentest,MaxCycle=999)

Gaussian input prepared by ASE

0 1
C                -0.6785180000       -0.1615180000        1.4063970000
C                 0.1769370000        0.4346640000        0.2186330000
F                -0.5699850000        0.1540900000       -0.9142810000
F                 0.0408710000        1.7950610000        0.1777160000
S                 1.7704610000       -0.0396010000        0.0616860000
O                 1.4282920000        0.8568270000        1.5846150000
O                 2.1120510000       -1.2747340000       -0.3178160000
O                 2.4125530000        0.9651730000       -0.9142890000
F                -0.1059480000       -1.1888440000        1.9935880000
F                -0.9405590000        0.7391180000        2.3524230000
F                -1.8622280000       -0.6003030000        0.9856430000
H                 2.2664970000        1.9181010000       -0.8160210000

1 2 F
1 9 F
1 10 F
1 11 F
2 3 F
2 4 F
2 5 F
5 6 F
5 7 F
5 8 F
8 12 F


