%mem=28GB
%chk=2003846667223680600001_r13_insertion_ROR_1_2_5_8_IRC_F
%nprocshared=8
#P wb97xd/6-311++G(d,p) ! ASE formatted method and basis
Symm(None)
scf(xqc)
pop(None)
geom(AllCheck,NoKeepConstants)
guess(Read)
irc(RCFC,forward,MaxPoints=100,StepSize=2)

Gaussian input prepared by ASE

0 1
C                 0.2799180000       -0.1927800000        0.4516030000
C                 1.6419150000       -0.0342270000       -0.0671610000
F                 2.4974550000       -0.6876310000        0.7304040000
F                 1.7067980000       -0.4922320000       -1.3158900000
S                 2.3256100000        1.8903670000       -0.0390310000
O                 2.2585160000        2.1483250000        1.3802370000
O                 3.5940440000        1.6419380000       -0.6698180000
O                 1.3258650000        2.5856660000       -0.8668350000
F                 0.0431940000       -0.1273330000        1.6781130000
F                -0.7443430000        1.9002520000        0.2312360000
F                -0.6788780000       -0.5273060000       -0.2843490000
H                -0.0581000000        2.3991300000       -0.2326820000


