%mem=28GB
%chk=2003846667223680600001_r12_insertion_R_2_5_8
%nprocshared=8
#P wb97xd/6-311++G(d,p) ! ASE formatted method and basis
Symm(None)
scf(xqc)
pop(None)
opt(NoFreeze,TS,CalcAll,NoEigentest,MaxCycle=999)

Gaussian input prepared by ASE

0 1
C                -0.8305000000       -0.2007500000        1.1975590000
C                 0.2137690000        0.5150080000        0.2194410000
F                -0.1759040000        0.1393070000       -1.0366090000
F                -0.1064980000        1.8397610000        0.2806220000
S                 1.7836200000        0.1261730000        0.6357570000
O                 2.3062910000        0.8059350000        1.7670290000
O                 2.2280940000       -1.1514560000        0.2416980000
O                 1.6622740000        1.2300550000       -0.7808310000
F                -0.2421940000       -0.9734440000        2.0840560000
F                -1.5498300000        0.6747240000        1.8923850000
F                -1.6898390000       -0.9625250000        0.5515450000
H                 2.4511400000        1.5552440000       -1.2343690000

1 2 F
1 9 F
1 10 F
1 11 F
2 3 F
2 4 F
2 5 F
5 6 F
5 7 F
5 8 F
8 12 F


