%mem=28GB
%chk=2003846667223680600001_r12_insertion_R_3_2_5_IRC_F
%nprocshared=8
#P wb97xd/6-311++G(d,p) ! ASE formatted method and basis
Symm(None)
scf(xqc)
pop(None)
geom(AllCheck,NoKeepConstants)
guess(Read)
irc(RCFC,forward,MaxPoints=100,StepSize=2)

Gaussian input prepared by ASE

0 1
C                -0.9516230000        0.4369730000        1.2825680000
C                 0.0641010000       -0.0739090000        0.2244350000
F                 0.2491100000       -1.3875550000        0.4576920000
F                -0.4731000000        0.0803170000       -0.9961030000
S                 2.3821100000        0.3335730000       -0.1108260000
O                 3.0112280000       -0.5609220000        0.8002340000
O                 2.4659270000        0.1930750000       -1.5251070000
O                 2.0497780000        1.7106440000        0.4171280000
F                -2.0921180000       -0.2350890000        1.2221250000
F                -0.4285850000        0.2961250000        2.4990650000
F                -1.2022510000        1.7312140000        1.0737930000
H                 0.9758450000        1.0735920000        0.4732900000


