%mem=28GB
%chk=2003846667223680600001_R_Addition_MultipleBond_5_8_12_IRC_F_prod
%nprocshared=8
#P mp2/6-31G ! ASE formatted method and basis
Symm(None)
scf(xqc)
pop(None)
guess(Mix,Always)
freq
opt(CalcFC)

Gaussian input prepared by ASE

0 1
C                -1.2001970000        0.0290750000        0.9202240000
C                -0.6217330000       -0.1690150000       -0.4830380000
F                -0.9236580000       -1.4259290000       -0.9778240000
F                -1.0692720000        0.8258760000       -1.3468410000
S                 1.4056170000        0.0137170000       -0.5985380000
O                 2.0546510000       -0.1027080000        1.0797900000
O                 1.9021890000       -1.0701850000       -1.6475300000
O                 1.7344940000        1.5932010000       -0.6822490000
F                -0.7823370000       -1.0069160000        1.7437330000
F                -0.7679190000        1.2431550000        1.4435020000
F                -2.5908870000        0.0312620000        0.8587750000
H                 2.4090280000        0.8294000000        1.1717620000


