%mem=28GB
%chk=2003846667223680600001_r13_insertion_ROR_1_2_5_8_IRC_F_prod
%nprocshared=8
#P wb97xd/6-311++G(d,p) ! ASE formatted method and basis
Symm(None)
scf(xqc)
pop(None)
freq
opt(CalcFC)

Gaussian input prepared by ASE

0 1
C                -1.0479520000       -1.0132700000        0.3496560000
C                 0.3115200000       -0.8556740000       -0.1686330000
F                 1.1703100000       -1.5046460000        0.6285000000
F                 0.3784110000       -1.3105900000       -1.4181830000
S                 0.9960020000        1.0747710000       -0.1409560000
O                 0.9289070000        1.3314060000        1.2784310000
O                 2.2641290000        0.8234140000       -0.7712620000
O                -0.0030120000        1.7691390000       -0.9692730000
F                -1.2857170000       -0.9445170000        1.5761500000
F                -2.0772190000        1.0863470000        0.1299210000
F                -2.0086090000       -1.3425190000       -0.3867620000
H                -1.3927990000        1.5850600000       -0.3337370000


