%mem=28GB
%chk=2003846667223680600001_R_Addition_MultipleBond_5_2_1_IRC_F
%nprocshared=8
#P mp2/6-31G ! ASE formatted method and basis
Symm(None)
scf(xqc)
pop(None)
guess(Read,Mix)
geom(AllCheck,NoKeepConstants)
irc(RCFC,forward,MaxPoints=100,StepSize=2)

Gaussian input prepared by ASE

0 1
C                -0.5350610000       -0.2450080000        1.5583400000
C                 0.0780020000        0.4447860000        0.3300200000
F                -0.3007760000       -0.2232620000       -0.8261210000
F                -0.2980430000        1.7805050000        0.3005030000
S                 2.0813870000        0.4309760000        0.3497670000
O                 2.6181530000        1.3583620000        1.5285980000
O                 2.6148930000       -1.0592310000        0.1695590000
O                 2.0846010000        1.3227820000       -1.2366870000
F                -0.1203780000       -1.5713890000        1.6079470000
F                -0.1175130000        0.4008120000        2.7169100000
F                -1.9229110000       -0.2012110000        1.4840340000
H                 3.0236120000        1.4812570000       -1.5213270000


