%mem=28GB
%chk=2003846667223680600001_intra_H_migration_suprafacial_6_12_IRC_R_prod
%nprocshared=8
#P wb97xd/6-311++G(d,p) ! ASE formatted method and basis
Symm(None)
scf(xqc)
pop(None)
freq
opt(CalcFC)

Gaussian input prepared by ASE

0 1
C                 0.8596730000       -1.1288790000       -0.3748170000
C                 0.5957510000        0.2181330000        0.3593220000
F                 0.8149350000        0.0412050000        1.6615200000
F                 1.4210950000        1.1523690000       -0.1075100000
S                -1.1849850000        0.8378110000        0.1957240000
O                -2.0671290000       -0.2945390000        0.0540950000
O                -1.3300400000        1.8185090000        1.2278560000
O                -1.2509050000        1.4173280000       -1.2947340000
F                 0.1974660000       -2.1150240000        0.2050070000
F                 0.4919530000       -1.0385760000       -1.6511360000
F                 2.1608360000       -1.3937610000       -0.3239900000
H                -1.8499230000        0.8068790000       -1.7478940000


