%mem=28GB
%chk=2003846667223680600001_r12_insertion_R_5_2_3_IRC_R
%nprocshared=8
#P wb97xd/6-311++G(d,p) ! ASE formatted method and basis
Symm(None)
scf(xqc)
pop(None)
geom(AllCheck,NoKeepConstants)
guess(Read)
irc(RCFC,reverse,MaxPoints=100,StepSize=2)

Gaussian input prepared by ASE

0 1
C                -0.6670090000        0.3890250000        1.3718280000
C                 0.1147150000        0.2004040000        0.0456640000
F                 0.5213630000       -1.6881760000        0.1484830000
F                -0.6046990000        0.2906810000       -1.0022210000
S                 1.7957410000       -0.1569630000       -0.1259350000
O                 2.5709750000       -0.2933260000        1.0589980000
O                 2.2228020000       -0.3807050000       -1.4602330000
O                 1.2822080000        1.6839640000       -0.1173350000
F                -1.6295610000       -0.5053780000        1.4417250000
F                 0.1290280000        0.2908810000        2.4178610000
F                -1.2094780000        1.6059610000        1.3516510000
H                 1.5243380000        2.1616620000        0.6878040000


