%mem=28GB
%chk=2003846667223680600001_r12_insertion_R_2_5_6_IRC_F_prod
%nprocshared=8
#P wb97xd/6-311++G(d,p) ! ASE formatted method and basis
Symm(None)
scf(xqc)
pop(None)
freq
opt(CalcFC)

Gaussian input prepared by ASE

0 1
C                -1.2957490000       -0.5663000000        0.5350970000
C                -0.2616710000        0.2558640000       -0.2678900000
F                -0.5854230000        0.3152180000       -1.5367060000
F                -0.3934600000        1.5906250000        0.2433150000
S                 1.5869200000       -0.3135910000       -0.0244310000
O                 0.9981130000        2.4221580000        0.4683340000
O                 1.5766350000       -1.6769480000       -0.5334690000
O                 2.1263950000        0.6227070000       -1.2454730000
F                -1.4107650000       -1.7694060000        0.0017070000
F                -0.8801260000       -0.6755530000        1.7947680000
F                -2.4836650000        0.0291970000        0.5226410000
H                 2.0573100000        1.5469560000       -0.9368570000


