%mem=28GB
%chk=2003846667223680600001_r13_insertion_RSR_9_1_2_5_IRC_R
%nprocshared=8
#P wb97xd/6-311++G(d,p) ! ASE formatted method and basis
Symm(None)
scf(xqc)
pop(None)
geom(AllCheck,NoKeepConstants)
guess(Read)
irc(RCFC,reverse,MaxPoints=100,StepSize=2)

Gaussian input prepared by ASE

0 1
C                 1.7807390000       -0.0402510000       -0.0780620000
C                 2.3611330000        1.2428470000        0.0650120000
F                 3.1227240000        1.4248660000        1.1349490000
F                 2.9110310000        1.7320840000       -1.0342110000
S                 0.4665700000        2.4764230000        0.4984400000
O                 0.6054010000        2.2662140000        1.9156440000
O                 1.0699980000        3.5177230000       -0.2899350000
O                -1.0888400000        2.7640740000        0.2081200000
F                -0.0567250000        0.6828090000       -0.1524880000
F                 1.6640860000       -0.6202850000       -1.2113630000
F                 1.5999620000       -0.7933550000        0.9364420000
H                -1.6131590000        2.0064160000        0.4987350000


