%mem=28GB
%chk=2003846667223680600001_r13_insertion_ROR_3_2_5_6_IRC_R_prod
%nprocshared=8
#P wb97xd/6-311++G(d,p) ! ASE formatted method and basis
Symm(None)
scf(xqc)
pop(None)
freq
opt(CalcFC)

Gaussian input prepared by ASE

0 1
C                 0.3593620000       -1.3316460000       -0.7702650000
C                 0.6583950000       -0.4538020000        0.4006450000
F                -2.1930700000        0.8279570000       -0.1493550000
F                 0.6993010000       -1.1354990000        1.5663390000
S                 0.1862440000        1.1062770000        0.5766860000
O                -1.4671370000        1.5020080000        0.8580650000
O                 0.7399460000        1.8298790000        1.6740190000
O                 0.3800950000        1.8273810000       -0.8069500000
F                 0.1936630000       -0.5938200000       -1.9071650000
F                 1.3666080000       -2.1731300000       -0.9913090000
F                -0.7434200000       -2.0678400000       -0.6242440000
H                 0.2596570000        1.2295070000       -1.5642130000


