%mem=28GB
%chk=2003846667223680600001_r12_insertion_R_9_1_10_IRC_F_prod
%nprocshared=8
#P wb97xd/6-311++G(d,p) ! ASE formatted method and basis
Symm(None)
scf(xqc)
pop(None)
freq
opt(CalcFC)

Gaussian input prepared by ASE

0 1
C                -1.7545010000       -0.2089200000        0.3542280000
C                -1.3242380000        0.5859710000       -0.6030070000
F                -1.0810820000        0.1845670000       -1.8268890000
F                -1.0083340000        1.8531350000       -0.3732230000
S                 1.6244570000       -0.2142320000        0.0739890000
O                 2.4761540000        0.4829620000        0.9812350000
O                 1.7719630000       -1.3913470000       -0.7038110000
O                 1.2326380000        0.8791480000       -1.0196540000
F                -1.9202040000        0.1901350000        1.5904920000
F                 0.4650820000       -0.6799190000        1.1095970000
F                -1.9297750000       -1.4947520000        0.1921520000
H                 1.3357270000        1.7686230000       -0.6525500000


