%mem=28GB
%chk=2003846667223680600001_r13_insertion_ROR_3_2_5_8_IRC_R_prod
%nprocshared=8
#P wb97xd/6-311++G(d,p) ! ASE formatted method and basis
Symm(None)
scf(xqc)
pop(None)
freq
opt(CalcFC)

Gaussian input prepared by ASE

0 1
C                 0.2954550000       -1.4083410000       -0.8575120000
C                 0.3774850000       -0.4488950000        0.3397540000
F                -2.8613380000        1.6859050000        1.0974900000
F                 0.9417890000       -1.0114180000        1.3913470000
S                 0.3517980000        1.2755640000        0.2828800000
O                 0.8800340000        1.8646270000        1.4725360000
O                 0.3077270000        1.8839240000       -1.0045890000
O                -0.9061650000        0.2892070000        0.5743020000
F                 1.5040490000       -1.7494650000       -1.2981020000
F                -0.3341020000       -2.5087410000       -0.4553130000
F                -0.3749540000       -0.8405060000       -1.8409600000
H                -2.4446430000        0.9666980000        1.4890610000


