%mem=28GB
%chk=2003846667223680600001_r13_insertion_RSR_9_1_2_5_IRC_R_prod
%nprocshared=8
#P wb97xd/6-311++G(d,p) ! ASE formatted method and basis
Symm(None)
scf(xqc)
pop(None)
freq
opt(CalcFC)

Gaussian input prepared by ASE

0 1
C                 0.8514680000       -1.5533670000       -0.2824540000
C                 1.5411740000       -0.4314670000       -0.1984480000
F                 1.9554070000        0.0846320000        0.9353600000
F                 1.8271160000        0.3018280000       -1.2475400000
S                -1.0351050000        1.0844650000        0.3182070000
O                -0.7097560000        0.8135980000        1.6777130000
O                -0.2143620000        1.8579750000       -0.5405090000
O                -2.5136270000        1.6048260000        0.1231560000
F                -1.3221810000       -0.3540070000       -0.3477400000
F                 0.4073120000       -2.0292830000       -1.4219220000
F                 0.4241620000       -2.2309750000        0.7566860000
H                -3.1454090000        1.0585690000        0.6094890000


