%mem=28GB
%chk=2003846667223680600001_R_Addition_MultipleBond_5_2_1
%nprocshared=8
#P mp2/6-31G ! ASE formatted method and basis
Symm(None)
scf(xqc)
pop(None)
guess(Mix,Always)
opt(NoFreeze,TS,CalcAll,NoEigentest,MaxCycle=999,Cartesian)

Gaussian input prepared by ASE

0 1
C                -0.4973460000       -0.1091060000        1.5990310000
C                 0.1077210000        0.3520980000        0.2654890000
F                -0.3639070000       -0.4315400000       -0.7782380000
F                -0.1659760000        1.7001260000        0.0513820000
S                 2.1067530000        0.1783380000        0.2034110000
O                 2.7028630000        0.9046870000        1.4965610000
O                 2.4874140000       -1.3003650000       -0.2157580000
O                 2.3042430000        1.2473950000       -1.2514070000
F                 0.0458390000       -1.3462060000        1.9427950000
F                -0.2089690000        0.8068870000        2.6002010000
F                -1.8776070000       -0.2365810000        1.4813740000
H                 2.5649370000        2.1536460000       -0.9332970000

1 2 F
1 9 F
1 10 F
1 11 F
2 3 F
2 4 F
2 5 F
5 6 F
5 7 F
5 8 F
8 12 F
5 2 1 F


