%mem=28GB
%chk=2003846667223680600001_r13_insertion_ROR_1_2_5_8
%nprocshared=8
#P wb97xd/6-311++G(d,p) ! ASE formatted method and basis
Symm(None)
scf(xqc)
pop(None)
opt(NoFreeze,TS,CalcAll,NoEigentest,MaxCycle=999)

Gaussian input prepared by ASE

0 1
C                -0.0994520000        0.3231120000        0.1599200000
C                 1.8773380000        0.1377200000       -0.0807780000
F                 2.0635580000       -0.7764630000        0.8851760000
F                 1.8257230000       -0.6037060000       -1.1939740000
S                 2.4823150000        1.4549120000       -0.0417310000
O                 3.1427730000        1.8789810000        1.1949570000
O                 2.8496980000        2.0856900000       -1.3016950000
O                 0.6451930000        2.1751530000        0.2842140000
F                -0.3808400000        0.6964160000        1.3217440000
F                -0.5994330000        0.9489740000       -0.8455730000
F                -0.3382680000       -0.9167590000        0.0351010000
H                 0.7233870000        3.1001360000        0.5784670000

1 2 F
1 9 F
1 10 F
1 11 F
2 3 F
2 4 F
2 5 F
5 6 F
5 7 F
5 8 F
8 12 F


