%mem=28GB
%chk=2003846667223680600001_r12_insertion_R_2_5_6_IRC_R_prod
%nprocshared=8
#P wb97xd/6-311++G(d,p) ! ASE formatted method and basis
Symm(None)
scf(xqc)
pop(None)
freq
opt(CalcFC)

Gaussian input prepared by ASE

0 1
C                -1.3373230000       -0.6305450000        0.5127300000
C                -0.4149850000        0.3195180000       -0.3038230000
F                -0.6842770000        0.2187500000       -1.6024710000
F                -0.6198410000        1.5492070000        0.1123260000
S                 1.4671630000        0.1092770000       -0.0692000000
O                 1.7758470000        1.6619580000        0.6293800000
O                 1.7127450000       -1.3389480000       -0.0672660000
O                 2.0535770000        0.6384480000       -1.4335890000
F                -1.4089010000       -1.8370560000       -0.0205100000
F                -0.8815610000       -0.7159770000        1.7581940000
F                -2.5544200000       -0.0943500000        0.5337530000
H                 2.2764990000        1.5554030000       -1.1891330000


