%mem=28GB
%chk=2003846667223680600001_Intra_Diels_alder_R_6_7_IRC_R_prod
%nprocshared=8
#P wb97xd/6-311++G(d,p) ! ASE formatted method and basis
Symm(None)
scf(xqc)
pop(None)
freq
opt(CalcFC)

Gaussian input prepared by ASE

0 1
C                -1.3376140000       -0.2937790000        0.6559020000
C                -0.3797380000        0.3442560000       -0.4262160000
F                -0.7285200000       -0.0713810000       -1.6394230000
F                -0.4719270000        1.6781220000       -0.3817690000
S                 1.4277490000       -0.0809210000       -0.1675970000
O                 1.5969390000       -1.4683450000       -0.4581900000
O                 1.8464800000        0.5502150000        1.0527470000
O                 2.0326530000        0.7338080000       -1.4098240000
F                -0.6417930000       -1.0054390000        1.5365890000
F                -1.9895820000        0.6616690000        1.3023510000
F                -2.2159480000       -1.0902680000        0.0661430000
H                 2.2512110000        1.6358390000       -1.1412220000


