%mem=28GB
%chk=2003846667223680600001_r12_insertion_R_5_2_1_IRC_F_prod
%nprocshared=8
#P wb97xd/6-311++G(d,p) ! ASE formatted method and basis
Symm(None)
scf(xqc)
pop(None)
freq
opt(CalcFC)

Gaussian input prepared by ASE

0 1
C                -1.0116000000       -0.4994580000        0.7856320000
C                -0.4776550000        0.4084400000       -0.6289080000
F                -0.8690950000       -0.0936280000       -1.8021840000
F                -0.8555110000        1.6884920000       -0.6550880000
S                 1.2391600000        0.1443690000       -0.2366920000
O                 1.3962950000        0.8366330000        1.0125000000
O                 1.3823700000       -1.2808420000       -0.3494470000
O                 2.0331210000        0.8864890000       -1.3984500000
F                -0.2319330000       -1.1003220000        1.7186140000
F                -1.6968830000        0.3942560000        1.4667690000
F                -1.7008270000       -1.4889550000        0.2579600000
H                 2.9872540000        0.7975680000       -1.2737410000


