%mem=28GB
%chk=2003846667223680600001_r12_insertion_R_5_2_1_IRC_F
%nprocshared=8
#P wb97xd/6-311++G(d,p) ! ASE formatted method and basis
Symm(None)
scf(xqc)
pop(None)
geom(AllCheck,NoKeepConstants)
guess(Read)
irc(RCFC,forward,MaxPoints=100,StepSize=2)

Gaussian input prepared by ASE

0 1
C                -0.3842710000       -0.3768630000        1.5438750000
C                -0.0511960000        0.9424220000       -0.5058030000
F                -0.6325070000        0.2674850000       -1.3964280000
F                -0.6179810000        2.0394400000       -0.2570570000
S                 1.3156530000        0.2667290000        0.5283960000
O                 1.7063940000        1.0972910000        1.6457660000
O                 1.6927740000       -1.0977830000        0.2331940000
O                 2.1658380000        1.0730560000       -0.7332450000
F                 0.0634560000       -1.0462560000        2.5875590000
F                -1.1615460000        0.6268420000        1.9865440000
F                -1.1670820000       -1.1953560000        0.8199340000
H                 3.1208930000        1.0010290000       -0.6344400000


