%mem=28GB
%chk=2003846667223680600001_R_Addition_MultipleBond_5_8_12_IRC_R
%nprocshared=8
#P mp2/6-31G ! ASE formatted method and basis
Symm(None)
scf(xqc)
pop(None)
guess(Read,Mix)
geom(AllCheck,NoKeepConstants)
irc(RCFC,reverse,MaxPoints=100,StepSize=2)

Gaussian input prepared by ASE

0 1
C                -0.8145920000        0.1996430000        1.3338820000
C                -0.2393170000        0.0066660000       -0.0773590000
F                -0.5400090000       -1.2545460000       -0.5669890000
F                -0.6878270000        0.9971330000       -0.9390360000
S                 1.7763520000        0.1150220000       -0.1624250000
O                 2.4337400000        0.1283020000        1.4310640000
O                 2.2908880000       -0.8976300000       -1.2643740000
O                 2.1590440000        1.7916550000       -0.1838920000
F                -0.3981910000       -0.8382130000        2.1540480000
F                -0.3841340000        1.4128330000        1.8549160000
F                -2.2052080000        0.1996620000        1.2688070000
H                 2.6137370000        1.4026680000        1.0284440000


