%mem=28GB
%chk=2003846667223680600001_well_mp2
%nprocshared=8
#P mp2/6-31G ! ASE formatted method and basis
Symm(None)
scf(xqc)
pop(None)
freq
opt(CalcFC, Tight)

Gaussian input prepared by ASE

0 1
C                 1.4285170000        0.2648140000        0.0874890000
C                 0.3198360000       -0.6642580000       -0.4919090000
F                 0.3546850000       -0.5961980000       -1.8192360000
F                 0.5583660000       -1.9175280000       -0.1025030000
S                -1.4326880000       -0.2741970000        0.0806920000
O                -2.3003650000       -0.7021250000       -0.9686580000
O                -1.5471880000       -0.7159440000        1.4420170000
O                -1.4046940000        1.3301110000        0.0520330000
F                 1.4284580000        1.4361000000       -0.5342040000
F                 1.2286380000        0.4723580000        1.3901150000
F                 2.6122160000       -0.3083700000       -0.0765790000
H                -1.2457820000        1.6752370000        0.9407450000


