%mem=28GB
%chk=2003846667223680600001_r13_insertion_RSR_9_1_2_5
%nprocshared=8
#P wb97xd/6-311++G(d,p) ! ASE formatted method and basis
Symm(None)
scf(xqc)
pop(None)
opt(NoFreeze,TS,CalcAll,NoEigentest,MaxCycle=999)

Gaussian input prepared by ASE

0 1
C                 1.8196540000       -0.0836630000       -0.0494230000
C                 2.1511720000        1.3256010000        0.0316380000
F                 3.1145830000        1.5585650000        0.9162880000
F                 2.6195100000        1.7589020000       -1.1273150000
S                 0.5736340000        2.4279050000        0.5759710000
O                 0.4667350000        2.1057250000        1.9524370000
O                 1.1706740000        3.6245020000        0.0938960000
O                -0.8582120000        2.7222340000       -0.0383230000
F                -0.0571500000        0.5930910000        0.0906190000
F                 1.6590250000       -0.7314070000       -1.1497480000
F                 1.8024420000       -0.8743740000        0.9495770000
H                -1.6391460000        2.2324820000        0.2456670000

1 2 F
1 9 F
1 10 F
1 11 F
2 3 F
2 4 F
2 5 F
5 6 F
5 7 F
5 8 F
8 12 F


