%mem=28GB
%chk=2003846667223680600001_r12_insertion_R_3_2_5_IRC_F_prod
%nprocshared=8
#P wb97xd/6-311++G(d,p) ! ASE formatted method and basis
Symm(None)
scf(xqc)
pop(None)
opt(CalcAll,Cartesian)

Gaussian input prepared by ASE

0 1
C                -1.7335320000        0.0087920000        0.9867210000
C                -1.0147960000        0.3328630000       -0.3341540000
F                -0.1674600000       -0.6956740000       -0.6227210000
F                -1.9101860000        0.4279300000       -1.3261680000
S                 2.5201920000       -0.2240470000       -0.5717480000
O                 2.7294380000       -1.0246560000        0.5954500000
O                 2.8091270000       -0.7447040000       -1.8728800000
O                 2.0568200000        1.1282410000       -0.4322500000
F                -2.4305690000       -1.1171540000        0.9030250000
F                -0.8333660000       -0.1122520000        1.9626350000
F                -2.5622710000        1.0086260000        1.2929570000
H                -0.4341280000        1.2536270000       -0.2531870000


