%mem=28GB
%chk=2003846667223680600001_r12_insertion_R_6_5_8_IRC_R
%nprocshared=8
#P wb97xd/6-311++G(d,p) ! ASE formatted method and basis
Symm(None)
scf(xqc)
pop(None)
geom(AllCheck,NoKeepConstants)
guess(Read)
irc(RCFC,reverse,MaxPoints=100,StepSize=2)

Gaussian input prepared by ASE

0 1
C                -1.2651140000       -0.3082750000        0.7809090000
C                -0.4156370000        0.3745480000       -0.3626220000
F                -0.9030910000        0.0350780000       -1.5514940000
F                -0.4717440000        1.7050200000       -0.2348860000
S                 1.3989170000       -0.0952800000       -0.3267670000
O                 1.9616610000        0.4583110000        0.8731880000
O                 1.5035120000       -1.4665530000       -0.7095200000
O                 1.8844790000        0.7784730000       -1.5812150000
F                -0.4936880000       -1.0772820000        1.5422530000
F                -1.8247630000        0.6193290000        1.5438780000
F                -2.2173760000       -1.0582790000        0.2477630000
H                 2.1520810000        1.6596940000       -1.2889720000


