%mem=28GB
%chk=2003846667223680600001_r13_insertion_ROR_3_2_5_8_IRC_F_prod
%nprocshared=8
#P wb97xd/6-311++G(d,p) ! ASE formatted method and basis
Symm(None)
scf(xqc)
pop(None)
opt(CalcAll,Cartesian)

Gaussian input prepared by ASE

0 1
C                 0.1785800000       -1.1779690000       -0.9105060000
C                 0.7334440000       -0.5447600000        0.3394530000
F                -2.4778820000       -0.2375430000        1.1186290000
F                 1.2734290000       -1.3773310000        1.2192930000
S                 0.8219880000        1.0310520000        0.6400730000
O                 1.4084430000        1.4214890000        1.8944320000
O                 0.3017040000        1.9406930000       -0.3509040000
O                -2.0502660000        1.1053800000        1.0959450000
F                 1.1416130000       -1.4252580000       -1.8079080000
F                -0.3849730000       -2.3410680000       -0.5943300000
F                -0.7350800000       -0.4049580000       -1.4976190000
H                -2.2960690000        1.3437140000        0.1890520000


