%mem=28GB
%chk=2003846667223680600001_r12_insertion_R_1_2_5
%nprocshared=8
#P wb97xd/6-311++G(d,p) ! ASE formatted method and basis
Symm(None)
scf(xqc)
pop(None)
opt(NoFreeze,TS,CalcAll,NoEigentest,MaxCycle=999)

Gaussian input prepared by ASE

0 1
C                -0.2451900000       -0.1416600000        1.1697210000
C                -0.3977820000        0.4193200000       -0.3958280000
F                -0.6355720000       -0.4416690000       -1.1983310000
F                -1.1798720000        1.3384000000       -0.4338550000
S                 1.5259620000        0.3286190000        0.6674450000
O                 1.8327870000        0.9292540000        1.8737510000
O                 2.0380530000       -0.8890370000        0.2169940000
O                 1.9576040000        1.3801390000       -0.4118330000
F                 0.1977140000       -1.1948570000        1.7834710000
F                -0.3453620000        0.8273240000        2.0604340000
F                -1.5639890000       -0.5306330000        1.1753710000
H                 2.8660680000        1.5728320000       -0.6890520000

1 2 F
1 9 F
1 10 F
1 11 F
2 3 F
2 4 F
2 5 F
5 6 F
5 7 F
5 8 F
8 12 F


