%mem=28GB
%chk=2003846667223680600001_Intra_Diels_alder_R_6_7_IRC_F
%nprocshared=8
#P wb97xd/6-311++G(d,p) ! ASE formatted method and basis
Symm(None)
scf(xqc)
pop(None)
geom(AllCheck,NoKeepConstants)
guess(Read)
irc(RCFC,forward,MaxPoints=100,StepSize=2)

Gaussian input prepared by ASE

0 1
C                -1.3376290000       -0.2938680000        0.6558500000
C                -0.3794220000        0.3469100000       -0.4242840000
F                -0.7302450000       -0.0628140000       -1.6389480000
F                -0.4687790000        1.6807120000       -0.3740590000
S                 1.4274810000       -0.0827390000       -0.1689290000
O                 1.5922750000       -1.4707610000       -0.4593360000
O                 1.8505550000        0.5476810000        1.0502520000
O                 2.0320140000        0.7301400000       -1.4125690000
F                -0.6406450000       -0.9953790000        1.5436920000
F                -2.0006560000        0.6594430000        1.2942290000
F                -2.2063650000       -1.1002880000        0.0655730000
H                 2.2546050000        1.6312370000       -1.1441470000


