%mem=28GB
%chk=2003846667223680600001_r13_insertion_ROR_1_2_5_6_IRC_F_prod
%nprocshared=8
#P wb97xd/6-311++G(d,p) ! ASE formatted method and basis
Symm(None)
scf(xqc)
pop(None)
opt(CalcAll,Cartesian)

Gaussian input prepared by ASE

0 1
C                -1.3345090000        0.2723510000        0.6919610000
C                 1.1191010000       -1.9521680000       -0.9726490000
F                 0.5086730000       -3.0623440000       -0.6883770000
F                 1.2033770000       -1.9379840000       -2.2677160000
S                 1.1876690000        1.2131670000        0.4916070000
O                -0.5524440000        1.3646280000        0.7216930000
O                 1.6362290000        2.4609690000        1.0616720000
O                 1.1647200000        1.3619170000       -1.1185780000
F                -2.5568330000        0.6162440000        1.0695070000
F                -1.4177460000       -0.2688760000       -0.5369870000
F                -0.8919410000       -0.6946440000        1.5102090000
H                 0.8928820000        2.2534190000       -1.3829130000


