%mem=28GB
%chk=2003846667223680600001_r12_insertion_R_6_5_7_IRC_R
%nprocshared=8
#P wb97xd/6-311++G(d,p) ! ASE formatted method and basis
Symm(None)
scf(xqc)
pop(None)
geom(AllCheck,NoKeepConstants)
guess(Read)
irc(RCFC,reverse,MaxPoints=100,StepSize=2)

Gaussian input prepared by ASE

0 1
C                -0.8350970000        0.2242670000        1.3517560000
C                -0.2570020000        0.1451500000       -0.0794600000
F                -0.7072190000       -0.9658540000       -0.6785070000
F                -0.6823920000        1.2083670000       -0.7757440000
S                 1.7540120000        0.1191270000       -0.4319900000
O                 1.8530700000       -0.8988120000        0.7275660000
O                 3.2939380000       -0.3622040000       -0.2586120000
O                 1.8890330000        1.6236790000        0.1569730000
F                -0.5537610000       -0.8806600000        2.0320400000
F                -0.3332090000        1.2706950000        2.0004600000
F                -2.1621740000        0.3582170000        1.2988010000
H                 2.7912240000        1.7560560000        0.4750070000


