%mem=28GB
%chk=2003846667223680600001_r12_insertion_R_8_5_2
%nprocshared=8
#P wb97xd/6-311++G(d,p) ! ASE formatted method and basis
Symm(None)
scf(xqc)
pop(None)
opt(NoFreeze,TS,CalcAll,NoEigentest,MaxCycle=999)

Gaussian input prepared by ASE

0 1
C                -0.8526660000       -0.1212080000        1.2151210000
C                 0.1495450000        0.5673570000        0.2166670000
F                -0.2647210000        0.2591680000       -1.0279550000
F                -0.0420410000        1.8938940000        0.3217740000
S                 1.8363210000        0.0456260000        0.5667900000
O                 2.4260050000        0.6494180000        1.6988100000
O                 2.1684450000       -1.2425240000        0.1266050000
O                 1.7154820000        1.1175750000       -0.7080510000
F                -0.2518320000       -0.9473970000        2.0471500000
F                -1.5002200000        0.7560170000        1.9855700000
F                -1.7882650000       -0.8326970000        0.6084500000
H                 2.4543650000        1.4527990000       -1.2326390000

1 2 F
1 9 F
1 10 F
1 11 F
2 3 F
2 4 F
2 5 F
5 6 F
5 7 F
5 8 F
8 12 F


