%mem=28GB
%chk=2003846667223680600001_r12_insertion_R_8_5_2_IRC_F_prod
%nprocshared=8
#P wb97xd/6-311++G(d,p) ! ASE formatted method and basis
Symm(None)
scf(xqc)
pop(None)
freq
opt(CalcFC)

Gaussian input prepared by ASE

0 1
C                -1.2869150000       -0.2996790000        0.7480580000
C                -0.4052890000        0.3693130000       -0.3791660000
F                -0.8580080000        0.0138780000       -1.5770950000
F                -0.4661390000        1.7012330000       -0.2703820000
S                 1.4079460000       -0.0975280000       -0.2848120000
O                 1.9365840000        0.4761850000        0.9211560000
O                 1.5242540000       -1.4747550000       -0.6420890000
O                 1.9277150000        0.7564510000       -1.5391590000
F                -0.5353110000       -1.0483520000        1.5484860000
F                -1.8784980000        0.6370890000        1.4749580000
F                -2.2153180000       -1.0669470000        0.1977440000
H                 2.1870490000        1.6423310000       -1.2536310000


