%mem=28GB
%chk=2003846667223680600001_r12_insertion_R_1_2_3_IRC_F
%nprocshared=8
#P wb97xd/6-311++G(d,p) ! ASE formatted method and basis
Symm(None)
scf(xqc)
pop(None)
geom(AllCheck,NoKeepConstants)
guess(Read)
irc(RCFC,forward,MaxPoints=100,StepSize=2)

Gaussian input prepared by ASE

0 1
C                -0.9883280000       -0.3973800000        0.8071870000
C                 0.0174960000        0.6026430000        0.5720700000
F                -0.4120880000       -0.1005790000       -0.9968860000
F                -0.3461290000        1.8238090000        0.3735740000
S                 1.8523430000        0.3221260000        0.5933750000
O                 2.3915320000        1.3367300000        1.4464460000
O                 2.0552120000       -1.0773840000        0.7614470000
O                 2.2053410000        0.6872840000       -0.9151530000
F                -0.7405990000       -1.6141950000        1.0056250000
F                -0.2130840000        0.4840540000        2.3265350000
F                -2.2151120000       -0.0902910000        0.8268380000
H                 2.4438430000        1.6212120000       -0.9827700000


