%mem=28GB
%chk=2003846667223680600001_r12_insertion_R_9_1_2_IRC_R_prod
%nprocshared=8
#P wb97xd/6-311++G(d,p) ! ASE formatted method and basis
Symm(None)
scf(xqc)
pop(None)
freq
opt(CalcFC)

Gaussian input prepared by ASE

0 1
C                -1.5399600000       -0.3522860000        0.5622360000
C                -0.4116700000        0.3447700000       -0.3649560000
F                -0.5789400000       -0.0311140000       -1.6346980000
F                -0.4655590000        1.6579140000       -0.1883640000
S                 1.5571430000       -0.0194660000       -0.1117850000
O                 2.0416550000        0.6161500000        1.0739470000
O                 1.8694960000       -1.3798830000       -0.4608130000
O                 2.0378080000        0.9203700000       -1.3345580000
F                -0.7361290000       -1.0127350000        1.3873840000
F                -2.3386520000        0.4628330000        1.2554020000
F                -2.3875890000       -1.1924650000       -0.0349560000
H                 2.0852510000        0.3996130000       -2.1467590000


