%mem=28GB
%chk=2003846467324380000001_well
%nprocshared=8
#P wb97xd/6-311++G(d,p) ! ASE formatted method and basis
Symm(None)
scf(xqc)
pop(None)
freq
opt(CalcFC, Tight)

Gaussian input prepared by ASE

0 1
C                -1.0023880000        0.4349940000        0.9722680000
C                -0.1682820000        0.5886980000       -0.3345550000
F                 0.2540180000       -1.9492600000       -0.7365860000
F                -1.0207570000        0.4000240000       -1.3721810000
S                 1.2020040000       -0.6750920000       -0.5246920000
O                 1.8760510000       -0.8628930000        0.7179340000
O                 1.8599590000       -0.4364440000       -1.7651770000
O                 0.4722150000        1.7718650000       -0.4014920000
F                -1.6322330000       -0.7247520000        1.0312570000
F                -0.2447130000        0.5832760000        2.0472060000
F                -1.9153200000        1.4220550000        0.9696620000
H                -0.1285220000        2.4978160000       -0.1979400000


