%mem=28GB
%chk=2003846667223680600001_r12_insertion_R_9_1_10_IRC_R
%nprocshared=8
#P wb97xd/6-311++G(d,p) ! ASE formatted method and basis
Symm(None)
scf(xqc)
pop(None)
geom(AllCheck,NoKeepConstants)
guess(Read)
irc(RCFC,reverse,MaxPoints=100,StepSize=2)

Gaussian input prepared by ASE

0 1
C                -1.0617630000       -0.1468900000        1.0241450000
C                -0.4269780000        0.6409480000        0.0601400000
F                -0.5680730000        0.2851470000       -1.2002210000
F                -0.4748030000        1.9536040000        0.2403880000
S                 1.8470950000        0.0330970000        0.5410320000
O                 2.6525750000        0.6861900000        1.5411960000
O                 2.0471320000       -1.2012010000       -0.1548170000
O                 1.9361300000        1.1298630000       -0.6990980000
F                -1.4485390000        0.3250000000        2.1434980000
F                 0.7659370000       -0.7446540000        1.8736220000
F                -1.4246540000       -1.3413430000        0.7734470000
H                 2.2063640000        1.9782710000       -0.3250350000


