%mem=28GB
%chk=2003846667223680600001_r12_insertion_R_8_5_6_IRC_R
%nprocshared=8
#P wb97xd/6-311++G(d,p) ! ASE formatted method and basis
Symm(None)
scf(xqc)
pop(None)
geom(AllCheck,NoKeepConstants)
guess(Read)
irc(RCFC,reverse,MaxPoints=100,StepSize=2)

Gaussian input prepared by ASE

0 1
C                -1.2647800000       -0.3063600000        0.7821970000
C                -0.4151740000        0.3763180000       -0.3613220000
F                -0.9052690000        0.0403280000       -1.5500980000
F                -0.4675670000        1.7066950000       -0.2310630000
S                 1.3981790000       -0.0983740000       -0.3289870000
O                 1.9641900000        0.4516230000        0.8710820000
O                 1.4985430000       -1.4692530000       -0.7142840000
O                 1.8841940000        0.7762790000       -1.5826320000
F                -0.4942080000       -1.0785120000        1.5412210000
F                -1.8211490000        0.6213220000        1.5474700000
F                -2.2195750000       -1.0531500000        0.2490750000
H                 2.1546330000        1.6562490000       -1.2892330000


