%mem=28GB
%chk=2003846667223680600001_R_Addition_MultipleBond_5_8_12_IRC_R_prod
%nprocshared=8
#P mp2/6-31G ! ASE formatted method and basis
Symm(None)
scf(xqc)
pop(None)
guess(Mix,Always)
freq
opt(CalcFC)

Gaussian input prepared by ASE

0 1
C                -1.1972160000        0.0305320000        0.9194010000
C                -0.6188390000       -0.1546590000       -0.4927900000
F                -0.9219470000       -1.4202150000       -0.9793670000
F                -1.0741950000        0.8311360000       -1.3538380000
S                 1.4183230000       -0.0769390000       -0.5108200000
O                 2.0179950000       -0.1317280000        0.9925210000
O                 1.8982680000       -1.0397270000       -1.6795360000
O                 1.7578710000        1.6834480000       -0.6546440000
F                -0.7831610000       -1.0064800000        1.7419280000
F                -0.7682620000        1.2447860000        1.4431450000
F                -2.5887320000        0.0313190000        0.8569040000
H                 2.2508660000        1.8150590000        0.2067900000


