%mem=28GB
%chk=2003846667223680600001_intra_H_migration_suprafacial_6_12_IRC_R
%nprocshared=8
#P wb97xd/6-311++G(d,p) ! ASE formatted method and basis
Symm(None)
scf(xqc)
pop(None)
geom(AllCheck,NoKeepConstants)
guess(Read)
irc(RCFC,reverse,MaxPoints=100,StepSize=2)

Gaussian input prepared by ASE

0 1
C                 2.4202380000       -1.6088980000       -1.4712650000
C                 2.1584100000       -0.2653960000       -0.7273780000
F                 2.3779150000       -0.4401900000        0.5715080000
F                 2.9788170000        0.6712860000       -1.1999470000
S                 0.4137500000        0.4130660000       -0.9149100000
O                -0.5325360000       -0.7633320000       -1.1219200000
O                 0.2179960000        1.3238740000        0.1658610000
O                 0.2784660000        0.8768210000       -2.3574220000
F                 1.7563290000       -2.5942090000       -0.8887010000
F                 2.0521400000       -1.5181840000       -2.7438580000
F                 3.7208540000       -1.8728030000       -1.4176810000
H                -0.4887710000       -0.1534180000       -2.2523760000


