%mem=28GB
%chk=2003846667223680600001_r12_insertion_R_5_2_3
%nprocshared=8
#P wb97xd/6-311++G(d,p) ! ASE formatted method and basis
Symm(None)
scf(xqc)
pop(None)
opt(NoFreeze,TS,CalcAll,NoEigentest,MaxCycle=999)

Gaussian input prepared by ASE

0 1
C                -0.8006380000        0.4309240000        1.3072640000
C                -0.0334050000        0.5471340000       -0.0297680000
F                 0.6100470000       -1.5566470000       -0.0262210000
F                -0.8488480000        0.1896600000       -1.0149780000
S                 1.5639550000        0.0803000000       -0.1692120000
O                 2.0470890000       -0.4994690000        1.0929180000
O                 1.8998470000       -0.2519910000       -1.5459020000
O                 2.3625770000        1.5013360000        0.0383040000
F                -0.8149430000       -0.7838840000        1.8170600000
F                -0.2589350000        1.2369900000        2.2404580000
F                -2.0618230000        0.8176910000        1.1827530000
H                 2.3855010000        1.8859870000        0.9256140000

1 2 F
1 9 F
1 10 F
1 11 F
2 3 F
2 4 F
2 5 F
5 6 F
5 7 F
5 8 F
8 12 F


