%mem=28GB
%chk=2003846667223680600001_r12_insertion_R_3_2_5_IRC_R_prod
%nprocshared=8
#P wb97xd/6-311++G(d,p) ! ASE formatted method and basis
Symm(None)
scf(xqc)
pop(None)
freq
opt(CalcFC)

Gaussian input prepared by ASE

0 1
C                -1.4865890000        0.2025330000        0.8236780000
C                -0.4384810000       -0.3489630000       -0.2590380000
F                -0.3234350000       -1.6427730000        0.0028800000
F                -1.0271500000       -0.1542610000       -1.4483770000
S                 1.7426210000        0.0536900000       -0.5635140000
O                 2.4728760000       -0.7768730000        0.3498570000
O                 1.9294240000       -0.0196520000       -1.9838590000
O                 1.5183680000        1.5328500000       -0.0255940000
F                -2.6384820000       -0.4661990000        0.7621440000
F                -0.9869500000        0.0633780000        2.0447790000
F                -1.7563330000        1.4979580000        0.6169300000
H                 0.5843940000        1.5856380000        0.1989630000


