%mem=28GB
%chk=2003846667223680600001_r12_insertion_R_3_2_5
%nprocshared=8
#P wb97xd/6-311++G(d,p) ! ASE formatted method and basis
Symm(None)
scf(xqc)
pop(None)
opt(NoFreeze,TS,CalcAll,NoEigentest,MaxCycle=999)

Gaussian input prepared by ASE

0 1
C                -0.8356860000        0.3999330000        1.3020580000
C                -0.2040540000        0.2880820000        0.0069360000
F                 0.4418630000       -1.2441220000       -0.1481260000
F                -0.8425160000        0.4119970000       -1.0222040000
S                 1.9552500000       -0.0955080000       -0.1670440000
O                 2.4491160000       -0.6460050000        1.0233500000
O                 2.2787410000       -0.3431120000       -1.4915800000
O                 2.1188070000        1.4796750000        0.0389610000
F                -0.9697170000       -0.7352440000        1.9949010000
F                -0.1177750000        1.2049560000        2.1290730000
F                -2.0534010000        0.9482620000        1.3099180000
H                 1.8297940000        1.9291220000        0.8420480000

1 2 F
1 9 F
1 10 F
1 11 F
2 3 F
2 4 F
2 5 F
5 6 F
5 7 F
5 8 F
8 12 F


