%mem=28GB
%chk=2003846667223680600001_r12_insertion_R_12_8_5_IRC_F_prod
%nprocshared=8
#P wb97xd/6-311++G(d,p) ! ASE formatted method and basis
Symm(None)
scf(xqc)
pop(None)
freq
opt(CalcFC)

Gaussian input prepared by ASE

0 1
C                -1.2423140000       -0.3659240000        0.7625070000
C                -0.4624330000        0.1541130000       -0.4888300000
F                -0.7808980000       -0.5894560000       -1.5464100000
F                -0.7987120000        1.4226080000       -0.7129970000
S                 1.4044620000        0.1213250000       -0.2295170000
O                 1.7730750000        1.2535350000        0.5815900000
O                 1.7409700000       -1.2293700000        0.1074690000
O                 1.9498570000        0.6191050000       -1.6511690000
F                -1.1220760000       -1.6784610000        0.8750080000
F                -0.7785000000        0.2165600000        1.8610770000
F                -2.5295170000       -0.0624830000        0.6240600000
H                 2.3154090000        1.4942950000       -1.4579800000


