%mem=28GB
%chk=2003846667223680600001_intra_H_migration_5_12
%nprocshared=8
#P wb97xd/6-311++G(d,p) ! ASE formatted method and basis
Symm(None)
scf(xqc)
pop(None)
opt(NoFreeze,TS,CalcAll,NoEigentest,MaxCycle=999)

Gaussian input prepared by ASE

0 1
C                -0.6889290000        0.3138460000        1.3264440000
C                -0.0418200000        0.0688970000       -0.0676170000
F                -0.4412700000       -1.1099460000       -0.5435540000
F                -0.4524900000        1.0066950000       -0.9200520000
S                 1.8357340000        0.0733210000       -0.0265900000
O                 2.2524470000       -0.3097760000        1.2938840000
O                 2.2858100000       -0.5842770000       -1.2103800000
O                 2.1101050000        1.6351840000       -0.2442560000
F                -0.1893470000       -0.4466330000        2.2831200000
F                -0.5115690000        1.5810210000        1.7248500000
F                -1.9976660000        0.1003640000        1.3253380000
H                 1.8894190000        1.2693360000        0.8771060000



