%mem=28GB
%chk=2003846667223680600001_r12_insertion_R_2_1_9
%nprocshared=8
#P wb97xd/6-311++G(d,p) ! ASE formatted method and basis
Symm(None)
scf(xqc)
pop(None)
opt(NoFreeze,TS,CalcAll,NoEigentest,MaxCycle=999)

Gaussian input prepared by ASE

0 1
C                -0.9819740000        0.0970720000        1.4398480000
C                -0.0952160000        0.1716270000        0.0270190000
F                -0.4831620000       -0.7485690000       -0.7773700000
F                -0.6971280000        1.3798270000       -0.6110440000
S                 1.6481010000        0.2508940000        0.5401400000
O                 1.5973640000        0.9598230000        1.7905710000
O                 2.6937010000       -0.5228110000       -0.0890720000
O                 1.7891950000        1.5005790000       -0.4596730000
F                 0.8783080000       -1.0345200000        1.1269660000
F                -0.9636610000        0.9804060000        2.3048950000
F                -1.6671360000       -0.8886100000        1.7519260000
H                 2.3320310000        1.4523070000       -1.2259130000

1 2 F
1 9 F
1 10 F
1 11 F
2 3 F
2 4 F
2 5 F
5 6 F
5 7 F
5 8 F
8 12 F


