%mem=28GB
%chk=2003846667223680600001_intra_H_migration_6_12_IRC_F
%nprocshared=8
#P wb97xd/6-311++G(d,p) ! ASE formatted method and basis
Symm(None)
scf(xqc)
pop(None)
geom(AllCheck,NoKeepConstants)
guess(Read)
irc(RCFC,forward,MaxPoints=100,StepSize=2)

Gaussian input prepared by ASE

0 1
C                 2.1949510000       -1.8692780000       -1.5030220000
C                 2.3628540000       -0.5023600000       -0.7748590000
F                 2.7044800000       -0.7247650000        0.4898800000
F                 3.3131460000        0.2089460000       -1.3788200000
S                 0.8216080000        0.5763580000       -0.7585650000
O                -0.3968290000       -0.3375890000       -0.8089290000
O                 0.9915700000        1.5053850000        0.3110080000
O                 0.6141750000        1.0615530000       -2.1853890000
F                 1.3998670000       -2.6661860000       -0.8075140000
F                 1.6915100000       -1.6924080000       -2.7189820000
F                 3.3902730000       -2.4381170000       -1.6111330000
H                -0.3561850000        0.2454730000       -1.9534780000


