%mem=28GB
%chk=2003846667223680600001_r12_insertion_R_5_2_3_IRC_R_prod
%nprocshared=8
#P wb97xd/6-311++G(d,p) ! ASE formatted method and basis
Symm(None)
scf(xqc)
pop(None)
freq
opt(CalcFC)

Gaussian input prepared by ASE

0 1
C                -1.0977350000        0.3689910000        0.9054860000
C                -0.2125870000        0.5149850000       -0.3993480000
F                 0.2842340000       -1.8555880000       -0.3283030000
F                -1.0417420000        0.2669270000       -1.4350270000
S                 1.2350140000       -0.5555680000       -0.5433820000
O                 2.0795890000       -0.4000860000        0.5962570000
O                 1.7298530000       -0.5083480000       -1.8795720000
O                 0.4621760000        1.6927740000       -0.5201270000
F                -2.0210980000       -0.5795680000        0.9113930000
F                -0.3464340000        0.2107890000        1.9849900000
F                -1.7334490000        1.5493420000        0.9725490000
H                 0.2142120000        2.3456390000        0.1407890000


