%mem=28GB
%chk=2003846667223680600001_well
%nprocshared=8
#P wb97xd/6-311++G(d,p) ! ASE formatted method and basis
Symm(None)
scf(xqc)
pop(None)
freq
opt(CalcFC, Tight)

Gaussian input prepared by ASE

0 1
C                 1.5448150000        0.2164920000        0.0838820000
C                 0.4049600000       -0.6365180000       -0.5018940000
F                 0.3014530000       -0.4585530000       -1.8736530000
F                 0.6309210000       -1.9809430000       -0.1938290000
S                -1.4393160000       -0.3253850000        0.2146690000
O                -2.4952440000       -0.7234020000       -0.9085400000
O                -1.5663440000       -0.8939570000        1.6956610000
O                -1.1449770000        1.4658980000        0.2149270000
F                 1.5761560000        1.4813890000       -0.4747880000
F                 1.3974680000        0.3144700000        1.4639390000
F                 2.7607700000       -0.4144910000       -0.1881800000
H                -1.9706630000        1.9549990000        0.4678080000


