%mem=28GB
%chk=2003846667223680600001_r12_insertion_R_1_2_5_IRC_R_prod
%nprocshared=8
#P wb97xd/6-311++G(d,p) ! ASE formatted method and basis
Symm(None)
scf(xqc)
pop(None)
freq
opt(CalcFC)

Gaussian input prepared by ASE

0 1
C                -0.3778280000       -0.4275160000        0.5734080000
C                -1.3460440000        0.0001280000       -0.5269360000
F                -0.9348550000       -0.5078260000       -1.6895030000
F                -1.3719560000        1.3216100000       -0.6083420000
S                 1.4663040000        0.2537720000        0.1806060000
O                 1.6946050000        1.2763400000        1.1521200000
O                 2.2796480000       -0.9188690000        0.0023720000
O                 1.4761030000        1.0259570000       -1.2376550000
F                -0.3812600000       -1.7555520000        0.6538950000
F                -0.8114370000        0.0569410000        1.7327710000
F                -2.5595990000       -0.4585850000       -0.2493910000
H                 1.7273710000        0.4066300000       -1.9361260000


