%mem=28GB
%chk=2003846667223680600001_r12_insertion_R_9_1_10_IRC_R_prod
%nprocshared=8
#P wb97xd/6-311++G(d,p) ! ASE formatted method and basis
Symm(None)
scf(xqc)
pop(None)
freq
opt(CalcFC)

Gaussian input prepared by ASE

0 1
C                -1.1865420000       -0.4647060000        0.7021060000
C                -0.5648910000        0.4279820000       -0.4157210000
F                -0.9628020000        0.0957780000       -1.6398720000
F                -0.8548120000        1.7187690000       -0.2602990000
S                 1.3672920000        0.0404990000       -0.2300550000
O                 2.0449330000        0.5222530000        0.9489470000
O                 1.5629220000       -1.2992450000       -0.6982870000
O                 1.6772680000        1.0770280000       -1.4128760000
F                -1.9333930000        0.2114600000        1.5550980000
F                -0.1366550000       -0.9450260000        1.3814220000
F                -1.8718460000       -1.4756170000        0.2050270000
H                 2.1715820000        1.8299010000       -1.0675060000


