%mem=28GB
%chk=2003846667223680600001_r12_insertion_R_2_5_8_IRC_R
%nprocshared=8
#P wb97xd/6-311++G(d,p) ! ASE formatted method and basis
Symm(None)
scf(xqc)
pop(None)
geom(AllCheck,NoKeepConstants)
guess(Read)
irc(RCFC,reverse,MaxPoints=100,StepSize=2)

Gaussian input prepared by ASE

0 1
C                -1.2978810000       -0.5283680000        0.5846450000
C                -0.4148410000        0.3475350000       -0.3893160000
F                -0.6604120000        0.0003910000       -1.6577330000
F                -0.7075570000        1.6341310000       -0.2305270000
S                 1.4283060000        0.1367300000       -0.1192220000
O                 1.7578190000        0.7329730000        1.1353670000
O                 1.7652620000       -1.2085650000       -0.4926580000
O                 1.9413350000        1.1386240000       -1.2619690000
F                -0.5287960000       -1.2465870000        1.3963280000
F                -2.0725730000        0.2560170000        1.3182690000
F                -2.0618690000       -1.3532650000       -0.1165210000
H                 2.0530270000        0.6629520000       -2.0955330000


