%mem=28GB
%chk=2003846667223680600001_r12_insertion_R_1_2_5_IRC_R
%nprocshared=8
#P wb97xd/6-311++G(d,p) ! ASE formatted method and basis
Symm(None)
scf(xqc)
pop(None)
geom(AllCheck,NoKeepConstants)
guess(Read)
irc(RCFC,reverse,MaxPoints=100,StepSize=2)

Gaussian input prepared by ASE

0 1
C                -0.4687530000       -0.3150380000        1.2833030000
C                -0.6132810000        0.3779350000        0.0594910000
F                -0.4337290000       -0.2042740000       -1.0551710000
F                -0.8681900000        1.6192090000        0.0214310000
S                 1.8755460000        0.5778720000        0.7335280000
O                 2.1278410000        1.5585460000        1.7712450000
O                 2.6993990000       -0.6210010000        0.6123280000
O                 2.0435950000        1.3774880000       -0.7084760000
F                -0.1436990000       -1.5418490000        1.3156730000
F                -0.5791330000        0.2787040000        2.3990250000
F                -2.2125340000       -0.3637530000        0.6620190000
H                 2.6233610000        0.8541930000       -1.2761080000


