%mem=28GB
%chk=2003846667223680600001_r13_insertion_RSR_9_1_2_5_IRC_F_prod
%nprocshared=8
#P wb97xd/6-311++G(d,p) ! ASE formatted method and basis
Symm(None)
scf(xqc)
pop(None)
freq
opt(CalcFC)

Gaussian input prepared by ASE

0 1
C                 0.1641420000       -1.4114660000       -0.3064680000
C                 0.8611990000       -0.0358170000       -0.1303230000
F                 1.7209790000       -0.0153470000        0.8827000000
F                 1.5187400000        0.3378590000       -1.2129710000
S                -0.5916300000        1.2457890000        0.3460530000
O                -0.6273950000        0.9965570000        1.7690230000
O                -0.1515100000        2.3870620000       -0.3985670000
O                -2.1546290000        1.1632240000       -0.0947130000
F                -1.1483550000       -1.1391990000       -0.3959170000
F                 0.5096440000       -2.0304410000       -1.4187910000
F                 0.3564020000       -2.1948880000        0.7365450000
H                -2.6318630000        0.5952010000        0.5251720000


