%mem=28GB
%chk=2003846667223680600001_r12_insertion_R_6_5_2_IRC_F
%nprocshared=8
#P wb97xd/6-311++G(d,p) ! ASE formatted method and basis
Symm(None)
scf(xqc)
pop(None)
geom(AllCheck,NoKeepConstants)
guess(Read)
irc(RCFC,forward,MaxPoints=100,StepSize=2)

Gaussian input prepared by ASE

0 1
C                -1.2300510000       -0.3366730000        0.8239390000
C                -0.4327990000        0.3793970000       -0.3366990000
F                -0.9656280000        0.0632780000       -1.5124980000
F                -0.4934690000        1.7060430000       -0.1758960000
S                 1.3851830000       -0.0758790000       -0.3849080000
O                 1.9928960000        0.4577920000        0.8020110000
O                 1.4839260000       -1.4382300000       -0.7998060000
O                 1.8122560000        0.8272140000       -1.6398790000
F                -0.4202480000       -1.1072380000        1.5426860000
F                -1.7749130000        0.5686500000        1.6235720000
F                -2.1901230000       -1.0914170000        0.3120150000
H                 2.0859300000        1.7041700000       -1.3405180000


