%mem=28GB
%chk=2003846667223680600001_r12_insertion_R_2_5_6_IRC_F
%nprocshared=8
#P wb97xd/6-311++G(d,p) ! ASE formatted method and basis
Symm(None)
scf(xqc)
pop(None)
geom(AllCheck,NoKeepConstants)
guess(Read)
irc(RCFC,forward,MaxPoints=100,StepSize=2)

Gaussian input prepared by ASE

0 1
C                -0.9305730000       -0.4508890000        1.0746890000
C                 0.0405470000        0.4263520000        0.2554110000
F                -0.2819590000        0.4209150000       -1.0270870000
F                 0.0072520000        1.6889290000        0.7230240000
S                 1.8915300000       -0.0358790000        0.5318210000
O                 1.9051180000        2.5681020000        1.1590050000
O                 2.0631820000       -1.4472610000        0.2326370000
O                 2.4333130000        0.8167770000       -0.7264040000
F                -1.0079210000       -1.6597480000        0.5435950000
F                -0.4814060000       -0.5464230000        2.3257500000
F                -2.1421850000        0.0934050000        1.0934960000
H                 2.5535240000        1.7237540000       -0.3676420000


