%mem=28GB
%chk=2003846667223680600001_intra_H_migration_6_12
%nprocshared=8
#P wb97xd/6-311++G(d,p) ! ASE formatted method and basis
Symm(None)
scf(xqc)
pop(None)
opt(NoFreeze,TS,CalcAll,NoEigentest,MaxCycle=999)

Gaussian input prepared by ASE

0 1
C                 2.2761990000       -1.8879440000       -1.5065160000
C                 2.3693350000       -0.5314610000       -0.7454320000
F                 2.6730360000       -0.7547970000        0.5353470000
F                 3.4246210000        0.1685770000       -1.1668260000
S                 0.8322120000        0.5273180000       -0.7562300000
O                -0.4450140000       -0.1563040000       -0.8193980000
O                 1.0614760000        1.5744700000        0.1615980000
O                 0.4001450000        1.0083770000       -2.2381040000
F                 1.5206680000       -2.7703130000       -0.8805460000
F                 1.7325830000       -1.7511670000       -2.7228760000
F                 3.4574650000       -2.4625830000       -1.6862990000
H                -0.5713060000        0.4028390000       -1.8745210000



