%mem=28GB
%chk=2003846667223680600001_r12_insertion_R_2_1_9_IRC_R_prod
%nprocshared=8
#P wb97xd/6-311++G(d,p) ! ASE formatted method and basis
Symm(None)
scf(xqc)
pop(None)
freq
opt(CalcFC)

Gaussian input prepared by ASE

0 1
C                -1.0242540000       -0.3965700000        0.8167320000
C                -0.6464390000       -0.0324080000       -0.6364040000
F                -0.9361900000       -1.0489810000       -1.4327480000
F                -1.1499450000        1.0802520000       -1.1451790000
S                 1.2588300000        0.2856770000       -0.2553290000
O                 1.2519700000        0.7107810000        1.1125170000
O                 2.1512090000       -0.7143700000       -0.7742810000
O                 1.4557640000        1.6250620000       -1.1047240000
F                 0.0216650000       -1.3605640000        0.9436220000
F                -1.1680710000        0.7845460000        1.4440770000
F                -2.0282330000       -1.1071710000        1.2506820000
H                 2.0130530000        1.4511150000       -1.8730100000


