%mem=28GB
%chk=2003846667223680600001_r12_insertion_R_8_5_6_IRC_F_prod
%nprocshared=8
#P wb97xd/6-311++G(d,p) ! ASE formatted method and basis
Symm(None)
scf(xqc)
pop(None)
freq
opt(CalcFC)

Gaussian input prepared by ASE

0 1
C                -1.2648040000       -0.3064060000        0.7821680000
C                -0.4147960000        0.3779020000       -0.3600450000
F                -0.9061930000        0.0457320000       -1.5493840000
F                -0.4649860000        1.7079940000       -0.2263570000
S                 1.3978980000       -0.0994820000       -0.3298760000
O                 1.9665190000        0.4499600000        0.8691920000
O                 1.4955080000       -1.4706660000       -0.7148750000
O                 1.8835790000        0.7741610000       -1.5843670000
F                -0.4928270000       -1.0722990000        1.5460850000
F                -1.8288550000        0.6203930000        1.5429460000
F                -2.2136690000       -1.0597000000        0.2477010000
H                 2.1565270000        1.6534700000       -1.2913130000


