%mem=28GB
%chk=2003846667223680600001_r12_insertion_R_9_1_2
%nprocshared=8
#P wb97xd/6-311++G(d,p) ! ASE formatted method and basis
Symm(None)
scf(xqc)
pop(None)
opt(NoFreeze,TS,CalcAll,NoEigentest,MaxCycle=999)

Gaussian input prepared by ASE

0 1
C                -1.3110080000        0.1819710000        1.4201980000
C                 0.1306710000        0.4528710000       -0.2187050000
F                -0.3095390000       -0.3545550000       -1.0652230000
F                -0.3077000000        1.6342020000       -0.5568900000
S                 1.6670270000        0.2533940000        0.5894150000
O                 1.6204170000        0.8548780000        1.9071030000
O                 2.3059300000       -0.9923480000        0.1940000000
O                 2.4982490000        1.3053630000       -0.3164870000
F                -0.0612580000       -0.8834840000        1.1190730000
F                -1.1145790000        0.5695720000        2.4968790000
F                -2.2511960000       -0.4079390000        1.1546960000
H                 3.1834140000        0.9841030000       -0.9057680000

1 2 F
1 9 F
1 10 F
1 11 F
2 3 F
2 4 F
2 5 F
5 6 F
5 7 F
5 8 F
8 12 F


