%mem=28GB
%chk=2003846667223680600001_r12_insertion_R_6_5_7_IRC_F_prod
%nprocshared=8
#P wb97xd/6-311++G(d,p) ! ASE formatted method and basis
Symm(None)
scf(xqc)
pop(None)
freq
opt(CalcFC)

Gaussian input prepared by ASE

0 1
C                -1.1578750000        0.0421660000        0.9001760000
C                -0.5807820000       -0.0301390000       -0.6086840000
F                -1.0511140000       -1.1366220000       -1.1577070000
F                -1.0291870000        1.0257800000       -1.2609200000
S                 1.4826720000       -0.1457060000       -0.5386280000
O                 1.3283410000       -1.0816870000        0.5492430000
O                 2.7086790000       -0.3346100000       -1.3028810000
O                 1.5071680000        1.4390710000       -0.1971310000
F                -0.9558230000       -1.0512120000        1.6026280000
F                -0.6728410000        1.0888540000        1.5493600000
F                -2.4841120000        0.1993090000        0.7946610000
H                 2.4205010000        1.7411490000       -0.0996630000


