%mem=28GB
%chk=2003846667223680600001_R_Addition_MultipleBond_5_2_1_IRC_R_prod
%nprocshared=8
#P mp2/6-31G ! ASE formatted method and basis
Symm(None)
scf(xqc)
pop(None)
guess(Mix,Always)
freq
opt(CalcFC)

Gaussian input prepared by ASE

0 1
C                -1.1788290000       -0.4808510000        0.8577980000
C                -0.5657660000        0.2090260000       -0.3704750000
F                -0.9445870000       -0.4588330000       -1.5267100000
F                -0.9417670000        1.5447630000       -0.3997810000
S                 1.4376200000        0.1951660000       -0.3507560000
O                 1.9747410000        1.1231570000        0.8275560000
O                 1.9707710000       -1.2951690000       -0.5301760000
O                 1.4408330000        1.0866340000       -1.9373990000
F                -0.7642850000       -1.8072610000        0.9073410000
F                -0.7611410000        0.1648980000        2.0163790000
F                -2.5666780000       -0.4369020000        0.7835790000
H                 2.3798590000        1.2546780000       -2.2166610000


