%mem=28GB
%chk=2003846667223680600001_r12_insertion_R_6_5_8
%nprocshared=8
#P wb97xd/6-311++G(d,p) ! ASE formatted method and basis
Symm(None)
scf(xqc)
pop(None)
opt(NoFreeze,TS,CalcAll,NoEigentest,MaxCycle=999)

Gaussian input prepared by ASE

0 1
C                -0.8737070000       -0.1339690000        1.3739900000
C                -0.1300570000        0.3304730000        0.0719910000
F                -0.7182890000       -0.2555340000       -1.0032150000
F                -0.3656830000        1.6362310000       -0.1246760000
S                 1.6348010000       -0.0465580000        0.1210850000
O                 2.4811260000        0.9345900000        1.1746410000
O                 1.8636930000       -1.2693860000       -0.3237510000
O                 2.5740240000        1.2534650000       -0.6961050000
F                -0.2390740000       -1.1162870000        2.0044030000
F                -0.9980510000        0.8567370000        2.2620360000
F                -2.0934560000       -0.5762200000        1.1297760000
H                 2.9150970000        1.9844850000       -0.1718900000

1 2 F
1 9 F
1 10 F
1 11 F
2 3 F
2 4 F
2 5 F
5 6 F
5 7 F
5 8 F
8 12 F


