%mem=28GB
%chk=2003846667223680600001_r12_insertion_R_9_1_10
%nprocshared=8
#P wb97xd/6-311++G(d,p) ! ASE formatted method and basis
Symm(None)
scf(xqc)
pop(None)
opt(NoFreeze,TS,CalcAll,NoEigentest,MaxCycle=999)

Gaussian input prepared by ASE

0 1
C                -1.1528860000       -0.1335370000        0.8247230000
C                -0.2043030000        0.5656990000        0.0480670000
F                -0.2379500000        0.2325750000       -1.2721200000
F                -0.4783950000        1.8907240000        0.0269320000
S                 1.5128610000        0.2908660000        0.7615210000
O                 2.1261700000        1.3735220000        1.4956780000
O                 1.9217660000       -1.0586210000        0.4972020000
O                 1.9364610000        0.8796390000       -0.6588020000
F                -0.6122380000       -1.5160370000        1.5897670000
F                 0.6628840000       -0.1902710000        2.0655940000
F                -2.2579680000        0.0473310000        1.2667150000
H                 2.8340220000        1.2161430000       -0.8269810000

1 2 F
1 9 F
1 10 F
1 11 F
2 3 F
2 4 F
2 5 F
5 6 F
5 7 F
5 8 F
8 12 F


