%mem=28GB
%chk=2003846667223680600001_r12_insertion_R_8_5_6_IRC_R_prod
%nprocshared=8
#P wb97xd/6-311++G(d,p) ! ASE formatted method and basis
Symm(None)
scf(xqc)
pop(None)
freq
opt(CalcFC)

Gaussian input prepared by ASE

0 1
C                -1.2647700000       -0.3063300000        0.7822190000
C                -0.4153940000        0.3754040000       -0.3620540000
F                -0.9047400000        0.0372120000       -1.5505050000
F                -0.4690550000        1.7059450000       -0.2337720000
S                 1.3983410000       -0.0977340000       -0.3284750000
O                 1.9628520000        0.4525790000        0.8721710000
O                 1.5002930000       -1.4684360000       -0.7139510000
O                 1.8845420000        0.7775080000       -1.5816310000
F                -0.4950090000       -1.0820720000        1.5384400000
F                -1.8167240000        0.6218670000        1.5500650000
F                -2.2229720000       -1.0493860000        0.2498750000
H                 2.1535270000        1.6578600000       -1.2880330000


