%mem=28GB
%chk=2003846667223680600001_r12_insertion_R_9_1_2_IRC_R
%nprocshared=8
#P wb97xd/6-311++G(d,p) ! ASE formatted method and basis
Symm(None)
scf(xqc)
pop(None)
geom(AllCheck,NoKeepConstants)
guess(Read)
irc(RCFC,reverse,MaxPoints=100,StepSize=2)

Gaussian input prepared by ASE

0 1
C                -1.6271730000        0.1081750000        0.9918850000
C                 0.1601390000        0.5188400000        0.4007110000
F                -0.0910990000        0.1110650000       -0.8475130000
F                 0.0173500000        1.8177770000        0.6026020000
S                 2.0509310000        0.2512670000        0.5313800000
O                 2.5221750000        0.8842060000        1.7231560000
O                 2.3423580000       -1.1132500000        0.1818850000
O                 2.5041170000        1.1949610000       -0.7013730000
F                -0.0103110000       -0.4959790000        1.7027150000
F                -2.1793690000        0.6541520000        2.0134770000
F                -2.2272970000       -0.9936380000        0.7199810000
H                 2.5886080000        0.6604530000       -1.5006150000


