%mem=28GB
%chk=2003846667223680600001_r13_insertion_ROR_3_2_5_6_IRC_F
%nprocshared=8
#P wb97xd/6-311++G(d,p) ! ASE formatted method and basis
Symm(None)
scf(xqc)
pop(None)
geom(AllCheck,NoKeepConstants)
guess(Read)
irc(RCFC,forward,MaxPoints=100,StepSize=2)

Gaussian input prepared by ASE

0 1
C                 1.9211810000       -0.8367160000       -1.1824210000
C                 2.0184650000        0.0352000000        0.0375600000
F                -0.5550480000        1.0325770000       -0.5037970000
F                 1.9384260000       -0.6304060000        1.1872330000
S                 1.7626040000        1.6713490000        0.2069700000
O                 0.3100110000        2.0371460000        0.5852340000
O                 2.5875580000        2.2914450000        1.1885850000
O                 1.9958350000        2.2898850000       -1.2159760000
F                 1.7450680000       -0.1257780000       -2.3027210000
F                 3.0450170000       -1.5496420000       -1.3240170000
F                 0.9170650000       -1.7056890000       -1.0754210000
H                 1.2405680000        2.1233490000       -1.8035910000


