%mem=28GB
%chk=2003846667223680600001_r12_insertion_R_6_5_2_IRC_R
%nprocshared=8
#P wb97xd/6-311++G(d,p) ! ASE formatted method and basis
Symm(None)
scf(xqc)
pop(None)
geom(AllCheck,NoKeepConstants)
guess(Read)
irc(RCFC,reverse,MaxPoints=100,StepSize=2)

Gaussian input prepared by ASE

0 1
C                -1.2300330000       -0.3366090000        0.8239630000
C                -0.4332010000        0.3778200000       -0.3380060000
F                -0.9646600000        0.0578680000       -1.5133620000
F                -0.4961980000        1.7047910000       -0.1805670000
S                 1.3854930000       -0.0747990000       -0.3839980000
O                 1.9905990000        0.4593530000        0.8040590000
O                 1.4869820000       -1.4367990000       -0.7993160000
O                 1.8129470000        0.8293100000       -1.6380960000
F                -0.4217780000       -1.1133890000        1.5377470000
F                -1.7670230000        0.5696290000        1.6278060000
F                -2.1960800000       -1.0849190000        0.3137410000
H                 2.0840780000        1.7068970000       -1.3382680000


