%mem=28GB
%chk=2003846667223680600001_r12_insertion_R_3_2_4
%nprocshared=8
#P wb97xd/6-311++G(d,p) ! ASE formatted method and basis
Symm(None)
scf(xqc)
pop(None)
opt(NoFreeze,TS,CalcAll,NoEigentest,MaxCycle=999,Cartesian)

Gaussian input prepared by ASE

0 1
C                -0.6310710000        0.0533560000        1.5276500000
C                 0.0817110000       -0.2472020000        0.2040000000
F                -0.6114250000       -0.2480200000       -0.8205150000
F                -0.9445470000        1.6060840000       -1.2872050000
S                 1.8802850000       -0.1192060000       -0.0065740000
O                 2.4230840000       -0.5227190000        1.2566550000
O                 2.1781480000       -0.7245360000       -1.2583860000
O                 2.0256660000        1.4469740000       -0.1966400000
F                -0.3680620000       -0.9027500000        2.4088030000
F                -0.1676320000        1.2119510000        2.0032950000
F                -1.9277170000        0.1378610000        1.3358870000
H                 2.1119770000        1.9062400000        0.6513210000

1 2 F
1 9 F
1 10 F
1 11 F
2 3 F
2 4 F
2 5 F
5 6 F
5 7 F
5 8 F
8 12 F


