%mem=28GB
%chk=2003846667223680600001_r12_insertion_R_9_1_11
%nprocshared=8
#P wb97xd/6-311++G(d,p) ! ASE formatted method and basis
Symm(None)
scf(xqc)
pop(None)
opt(NoFreeze,TS,CalcAll,NoEigentest,MaxCycle=999,Cartesian)

Gaussian input prepared by ASE

0 1
C                -0.5393600000        0.3330780000        1.6157480000
C                 0.0592890000        0.7403690000        0.2776400000
F                -0.7384240000        0.3535430000       -0.7042590000
F                 0.1769350000        2.0743150000        0.2715880000
S                 1.7765670000        0.0035620000        0.0729530000
O                 2.4124580000        0.2645970000        1.3381770000
O                 1.6643740000       -1.2807330000       -0.5254370000
O                 2.3473450000        1.0002190000       -1.0338340000
F                -0.5005200000       -0.8372150000        1.9831680000
F                -1.4802040000        1.0456980000        2.0938500000
F                -1.8800400000       -1.8780780000        1.0563590000
H                 2.7520080000        1.7786710000       -0.6276560000

1 2 F
1 9 F
1 10 F
1 11 F
2 3 F
2 4 F
2 5 F
5 6 F
5 7 F
5 8 F
8 12 F


