%mem=28GB
%chk=2003846667223680600001_intra_H_migration_6_12_IRC_R_prod
%nprocshared=8
#P wb97xd/6-311++G(d,p) ! ASE formatted method and basis
Symm(None)
scf(xqc)
pop(None)
freq
opt(CalcFC)

Gaussian input prepared by ASE

0 1
C                 0.5074850000       -1.3026950000       -0.4456610000
C                 0.6729450000        0.0681340000        0.2730220000
F                 1.0141640000       -0.1562820000        1.5411590000
F                 1.6281700000        0.7758750000       -0.3257980000
S                -0.9138780000        1.0984770000        0.3193510000
O                -2.0516780000        0.2117580000        0.3243610000
O                -0.6847670000        2.0832050000        1.3321710000
O                -1.0333310000        1.6793690000       -1.1672350000
F                -0.2865360000       -2.1008260000        0.2469370000
F                 0.0038630000       -1.1262990000       -1.6653510000
F                 1.7027390000       -1.8726200000       -0.5565180000
H                -1.8142420000        1.2311540000       -1.5223770000


