%mem=28GB
%chk=2003846667223680600001_r13_insertion_ROR_3_2_5_8
%nprocshared=8
#P wb97xd/6-311++G(d,p) ! ASE formatted method and basis
Symm(None)
scf(xqc)
pop(None)
opt(NoFreeze,TS,CalcAll,NoEigentest,MaxCycle=999)

Gaussian input prepared by ASE

0 1
C                 1.8583940000       -0.7753870000       -1.2310360000
C                 1.9016620000        0.1198080000        0.0640490000
F                -0.0824360000        0.0720540000        0.3111780000
F                 2.1408850000       -0.6712010000        1.1278640000
S                 2.1611760000        1.5463280000        0.0783590000
O                 2.9662560000        2.0363070000        1.1930450000
O                 2.3092740000        2.1424830000       -1.2394080000
O                 0.3029280000        2.0033710000        0.6597630000
F                 3.0294610000       -0.8578650000       -1.8240090000
F                 1.4989940000       -2.0270200000       -0.9256860000
F                 0.9861850000       -0.3390330000       -2.1289740000
H                 0.3306090000        2.8816610000        1.0619860000

1 2 F
1 9 F
1 10 F
1 11 F
2 3 F
2 4 F
2 5 F
5 6 F
5 7 F
5 8 F
8 12 F


