%mem=28GB
%chk=2003846667223680600001_r13_insertion_ROR_12_8_5_6_IRC_R
%nprocshared=8
#P wb97xd/6-311++G(d,p) ! ASE formatted method and basis
Symm(None)
scf(xqc)
pop(None)
geom(AllCheck,NoKeepConstants)
guess(Read)
irc(RCFC,reverse,MaxPoints=100,StepSize=2)

Gaussian input prepared by ASE

0 1
C                 4.1286640000        2.1304410000        1.8134760000
C                 3.3513500000        0.8821550000        1.3019360000
F                 4.1577810000        0.1070300000        0.5945280000
F                 2.8474130000        0.2163010000        2.3245700000
S                 1.8525680000        1.4306790000        0.2118380000
O                -0.4255540000        1.1098740000        0.4198110000
O                 2.3500170000        2.1814400000       -0.9306640000
O                 1.2659750000        0.0703880000        0.0291710000
F                 4.7692810000        2.7234540000        0.8221110000
F                 3.2758820000        2.9877590000        2.3662360000
F                 5.0071960000        1.7408660000        2.7298640000
H                -1.3336750000        1.0203750000        0.0856800000


