%mem=28GB
%chk=2003846667223680600001_r12_insertion_R_5_8_12
%nprocshared=8
#P wb97xd/6-311++G(d,p) ! ASE formatted method and basis
Symm(None)
scf(xqc)
pop(None)
opt(NoFreeze,TS,CalcAll,NoEigentest,MaxCycle=999)

Gaussian input prepared by ASE

0 1
C                -0.6727430000        0.2407720000        1.3729380000
C                 0.0097550000       -0.0147560000       -0.0148290000
F                -0.4264370000       -1.1839710000       -0.5101790000
F                -0.4308750000        0.8891640000       -0.8997500000
S                 1.8289250000       -0.0485690000        0.0315370000
O                 2.2415630000       -0.3946520000        1.2879740000
O                 2.3083110000       -0.5640660000       -1.1126660000
O                 2.2568280000        2.0905320000       -0.2533220000
F                -0.5896360000       -0.7986100000        2.1795980000
F                -0.1246270000        1.2745740000        2.0225510000
F                -1.9601910000        0.5259980000        1.2535140000
H                 1.6095540000        1.5816180000        0.4609220000

1 2 F
1 9 F
1 10 F
1 11 F
2 3 F
2 4 F
2 5 F
5 6 F
5 7 F
5 8 F
8 12 F


