%mem=28GB
%chk=2003846667223680600001_r13_insertion_ROR_3_2_5_8_IRC_F
%nprocshared=8
#P wb97xd/6-311++G(d,p) ! ASE formatted method and basis
Symm(None)
scf(xqc)
pop(None)
geom(AllCheck,NoKeepConstants)
guess(Read)
irc(RCFC,forward,MaxPoints=100,StepSize=2)

Gaussian input prepared by ASE

0 1
C                 2.0492600000       -0.8445480000       -1.2017270000
C                 2.2349990000        0.0926010000       -0.0300680000
F                -1.0238150000        2.1471740000        0.6786640000
F                 2.7268170000       -0.4557280000        1.0644470000
S                 2.1304740000        1.7643490000       -0.0570590000
O                 2.6048860000        2.3784310000        1.1403440000
O                 1.9820170000        2.3797330000       -1.3290360000
O                 0.3695680000        1.1827250000        0.2938050000
F                 3.2414350000       -1.2245950000       -1.6766200000
F                 1.4093380000       -1.9377650000       -0.7895800000
F                 1.3634390000       -0.2769840000       -2.1778240000
H                 0.3149700000        0.9261130000        1.2317840000


