%mem=28GB
%chk=2003846667223680600001_r12_insertion_R_2_5_8_IRC_F_prod
%nprocshared=8
#P wb97xd/6-311++G(d,p) ! ASE formatted method and basis
Symm(None)
scf(xqc)
pop(None)
freq
opt(CalcFC)

Gaussian input prepared by ASE

0 1
C                -1.2978920000       -0.5283400000        0.5847010000
C                -0.4148510000        0.3460340000       -0.3905950000
F                -0.6587560000       -0.0045260000       -1.6583660000
F                -0.7091950000        1.6327050000       -0.2352900000
S                 1.4282780000        0.1377680000       -0.1183540000
O                 1.7552450000        0.7341650000        1.1368490000
O                 1.7678550000       -1.2068680000       -0.4917330000
O                 1.9411990000        1.1406590000       -1.2602860000
F                -0.5288430000       -1.2521170000        1.3914620000
F                -2.0662320000        0.2575380000        1.3233280000
F                -2.0682580000       -1.3480620000       -0.1156290000
H                 2.0553180000        0.6650850000       -2.0935760000


