%mem=28GB
%chk=2004328380979804780401_well
%nprocshared=8
#P wb97xd/6-311++G(d,p) ! ASE formatted method and basis
Symm(None)
scf(xqc)
pop(None)
freq
opt(CalcFC, Tight)

Gaussian input prepared by ASE

0 1
C                -0.8079460000        0.2451040000        0.8989830000
C                -0.7859900000       -0.0080890000       -0.6573250000
F                -1.3865490000       -1.0890200000       -1.0675450000
F                -1.1621920000        1.0094610000       -1.3852160000
S                 1.1560930000       -0.1560930000       -0.3192900000
O                 0.5387050000        0.1768910000        1.1973260000
O                 2.5771260000       -0.4246670000       -0.3320300000
O                 1.2329340000        1.4088860000       -0.8842230000
F                 0.7662660000       -1.8286090000       -0.1822800000
F                -1.3014230000        1.4412920000        1.2011640000
F                -1.4977480000       -0.6760770000        1.5562260000
H                 2.1435070000        1.7178860000       -0.8106950000


