6
energy = -724.2952704620001
F -0.04928100 -0.18856800 -0.09499100
S 1.48409100 0.01577500 -0.02789100
O 1.87681500 -0.35797400 1.27486200
O 2.02013600 -0.53730800 -1.20113100
O 1.52446300 1.56931500 -0.16811100
H 1.45432400 1.98470800 0.70291700
6
energy = -724.29523093
F 0.08988600 0.18512400 0.09536900
S 1.61634400 -0.03204300 -0.04847500
O 2.06144300 -0.54580500 1.18799100
O 1.82303700 -0.66460800 -1.28410200
O 2.05703800 1.45786100 -0.19310200
H 2.21667300 1.84481000 0.67920500
6
energy = -724.2952342400001
F 0.00017700 0.00062900 -0.00042700
S 1.54874400 -0.00015000 -0.00003300
O 1.95523400 -0.49962600 1.24687700
O 1.94457100 -0.54679500 -1.23920900
O 1.78832000 1.54173700 -0.00001500
H 1.80870100 1.87631300 -0.90765100
