8
energy = -862.15714819
C 1.84576700 -0.58340900 1.73937400
F 3.11976700 -0.49870400 2.04581600
F 1.35934500 -1.76984000 1.99140200
S 1.44575100 0.03460100 0.10194900
O 2.30105800 -0.57714900 -0.85777300
O 0.03754900 0.01649500 0.00055400
O 1.90865700 1.52641800 0.29299400
H 2.78042500 1.65185700 -0.10756700
8
energy = -862.1571240039999
C 1.91250900 -0.42499600 1.60731700
F 3.20822200 -0.27817500 1.76130000
F 1.49507900 -1.58206300 2.04846400
S 1.32177700 -0.01703500 -0.03822000
O 2.09418900 -0.71958800 -1.00608400
O -0.08774400 -0.07998300 0.01568600
O 1.74811800 1.49741800 -0.07398000
H 2.56915100 1.59367300 -0.57682000
8
energy = -862.156582759
C 1.92183000 -0.48299400 1.65674400
F 3.21329600 -0.44972300 1.86706200
F 1.38649400 -1.60544900 2.06231700
S 1.41947600 0.00008300 -0.00007400
O 2.19667900 -0.70515600 -0.94959100
O 0.00007100 -0.00033100 -0.00020500
O 1.94132500 1.48418400 0.00003500
H 1.25051700 2.07648200 0.32894600
