%mem=28GB
%nprocshared=8
#P M062X/Def2TZVPP ! ASE formatted method and basis
Symm(None)
scf(xqc)
pop(None)
freq
opt(CalcFC)

Gaussian input prepared by ASE

0 2
C                -0.0948180000       -0.0591220000        0.0599340000
F                -0.5833290000        0.5895880000       -0.9742070000
F                -0.5486940000        0.4610280000        1.1791510000
F                -0.4147590000       -1.3325150000       -0.0108310000
S                 1.8050130000        0.1082230000        0.0392200000
O                 2.2377900000       -0.5249530000        1.2579340000
O                 2.1967480000       -0.3614370000       -1.2643610000


