%mem=28GB
%nprocshared=8
#P M062X/Def2TZVPP ! ASE formatted method and basis
Symm(None)
scf(xqc)
pop(None)
opt(NoFreeze,TS,CalcAll,NoEigentest,MaxCycle=999)

Gaussian input prepared by ASE

0 1
C                 1.6193000151        0.1184683732       -0.2177684874
F                -0.2865753777        0.4626990369        0.6607462699
F                 1.8715704787       -0.7805360568        0.6243658829
F                 1.0809079356       -0.3731561129       -1.2386914954
S                 2.1301097712        1.9887398002       -0.0491707760
O                 2.9467485738        1.9124542010        1.1123882004
O                 2.7317429662        2.1662637063       -1.3216673064
O                 0.7581407622        2.4111963941        0.1266272131
H                -0.3715991252        1.4215636582        0.6807484990


