%mem=28GB
%nprocshared=8
#P M062X/Def2TZVPP ! ASE formatted method and basis
Symm(None)
scf(xqc)
pop(None)
freq
opt(CalcFC)

Gaussian input prepared by ASE

0 1
C                 0.0000000000        0.0000000000        0.0000000000
F                -0.4577058026        0.5816945201       -1.0915067341
F                -0.4372309992        0.6610486946        1.0632230982
F                -0.4263920453       -1.2469316788        0.0521885010
S                 1.8399849320        0.0000000000        0.0000000000
O                 2.2487384747       -0.5421220433        1.2457992889
O                 2.2566623615       -0.5036649221       -1.2509421287
O                 2.0936725805        1.5521321491        0.0000000000
H                 2.9052740286        1.7569311793       -0.4863374882


