%mem=28GB
%nprocshared=8
#P M062X/Def2TZVPP ! ASE formatted method and basis
Symm(None)
scf(xqc)
pop(None)
opt(NoFreeze,TS,CalcAll,NoEigentest,MaxCycle=999)

Gaussian input prepared by ASE

0 1
C                 1.6485164108        0.1024899937       -0.1105652969
F                -0.4105647082        0.5307267246        0.2047792564
F                 1.6533309286       -0.6854102900        0.8693477669
F                 1.3835617978       -0.5144648067       -1.1702870912
S                 2.1446809538        1.9807230398        0.0048832924
O                 3.3126729145        1.8478145883        0.8049256694
O                 2.2684088680        2.2842981909       -1.3754276107
O                 0.9025237519        2.3321757227        0.6569568815
H                -0.4227849172        1.4493398367        0.4929651322


