%mem=28GB
%nprocshared=8
#P M062X/Def2TZVPP ! ASE formatted method and basis
Symm(None)
scf(xqc)
pop(None)
opt(NoFreeze,TS,CalcAll,NoEigentest,MaxCycle=999)

Gaussian input prepared by ASE

0 1
C                 0.7479939844       -1.6681542681        0.0806052630
F                 0.2551351686       -2.2572267263       -0.9357235770
F                 0.0000000000        0.0000000000        0.0000000000
F                 0.2637593882       -2.1525259426        1.1538921213
S                 1.8199133308        0.0000000000        0.0000000000
O                 2.3670785253       -0.2998184433        1.2747607883
O                 2.2717431793       -0.3661342480       -1.3030975120
O                 1.9464785420        1.5864444909        0.0000000000
H                 2.8405785628        1.8304172082        0.2725569899


