%mem=28GB
%nprocshared=8
#P M062X/Def2TZVPP ! ASE formatted method and basis
Symm(None)
scf(xqc)
pop(None)
opt(NoFreeze,TS,CalcAll,NoEigentest,MaxCycle=999)

Gaussian input prepared by ASE

0 1
C                 0.0000000000        0.0000000000        0.0000000000
F                -0.3468511628        0.5153596834       -1.1771367854
F                -0.5922406231        0.7026288152        0.9502132538
F                -0.4238669809       -1.2562689669        0.0443156458
S                 2.0056023385        0.0000000000        0.0000000000
O                 1.8491326212       -0.4795931549        1.4329682186
O                 3.4373428871       -0.3177754705        0.5695328454
O                 2.0583837219        1.5996969836        0.0000000000
H                 1.3690765518        1.9364055520        0.5877438765


