9
energy = -961.9521947580001
C 0.73040600 -1.68110500 0.06952000
F 0.22189000 -2.24787500 -0.95084500
F 0.00182000 -0.00278300 0.02207300
F 0.24969900 -2.17696600 1.13993900
S 1.82131500 -0.02521800 -0.00910600
O 2.34539000 -0.21008200 1.30522500
O 2.38400400 -0.34874300 -1.27128100
O 1.71187000 1.55695700 -0.14145800
H 1.50733600 1.93159300 0.72515000
9
energy = -961.9522571960001
C 0.72327200 -1.61447500 0.08854500
F 0.05482300 -2.10555300 -0.87733800
F 0.23100600 0.14822500 0.08476600
F 0.27406200 -2.03961300 1.20225000
S 2.02051400 -0.12496600 -0.10320800
O 2.62762400 -0.38216700 1.16231700
O 2.42036200 -0.52144200 -1.40605700
O 2.11852400 1.45735200 -0.24254100
H 2.04249400 1.85564000 0.63425900
9
energy = -961.952210592
C 0.72771200 -1.65592800 0.07494900
F 0.20982500 -2.21577800 -0.94548500
F 0.07130900 0.05024900 -0.00642900
F 0.21187100 -2.11560400 1.14431300
S 1.88857300 -0.04790700 0.00450100
O 2.45578600 -0.29052500 1.28271100
O 2.38489300 -0.36265700 -1.29580600
O 1.84764600 1.54299700 0.00640000
H 1.64670300 1.85339000 -0.88605400
