9
energy = 0
C 1.64851641 0.10248999 -0.11056530
F -0.41056471 0.53072672 0.20477926
F 1.65333093 -0.68541029 0.86934777
F 1.38356180 -0.51446481 -1.17028709
S 2.14468095 1.98072304 0.00488329
O 3.31267291 1.84781459 0.80492567
O 2.26840887 2.28429819 -1.37542761
O 0.90252375 2.33217572 0.65695688
H -0.42278492 1.44933984 0.49296513
9
energy = 0
C 1.63104652 0.11803220 -0.16424537
F -0.37857108 0.46953388 0.43619414
F 1.76794833 -0.72995404 0.75402304
F 1.23174411 -0.43379545 -1.21775772
S 2.14683598 1.98915402 -0.02236024
O 3.15668218 1.86803195 0.97135892
O 2.51636311 2.22340739 -1.37191562
O 0.82757679 2.40445147 0.40043602
H -0.41927993 1.41883158 0.59184483
9
energy = 0
C 1.61930002 0.11846837 -0.21776849
F -0.28657538 0.46269904 0.66074627
F 1.87157048 -0.78053606 0.62436588
F 1.08090794 -0.37315611 -1.23869150
S 2.13010977 1.98873980 -0.04917078
O 2.94674857 1.91245420 1.11238820
O 2.73174297 2.16626371 -1.32166731
O 0.75814076 2.41119639 0.12662721
H -0.37159913 1.42156366 0.68074850
