%mem=28GB
%nprocshared=8
#P M062X/Def2TZVPP ! ASE formatted method and basis
Symm(None)
scf(xqc)
pop(None)
opt(NoFreeze,TS,CalcAll,NoEigentest,MaxCycle=999)

Gaussian input prepared by ASE

0 1
C                 1.6310465211        0.1180322025       -0.1642453708
F                -0.3785710798        0.4695338796        0.4361941414
F                 1.7679483333       -0.7299540395        0.7540230414
F                 1.2317441096       -0.4337954517       -1.2177577240
S                 2.1468359789        1.9891540188       -0.0223602414
O                 3.1566821787        1.8680319492        0.9713589234
O                 2.5163631054        2.2234073882       -1.3719156201
O                 0.8275767857        2.4044514679        0.4004360192
H                -0.4192799330        1.4188315848        0.5918448309


