9
energy = -961.9221043110001
C 0.04812600 -0.02672300 -0.14151300
F -0.35290300 0.12785600 -1.39964500
F -0.45254300 0.98879900 0.57962200
F -0.45511200 -1.15904000 0.32991800
S 1.95632800 -0.08853800 -0.09096900
O 1.97813700 -0.48712900 1.42136700
O 3.34841400 -0.10010400 0.96006900
O 2.01998000 1.48158800 -0.34524500
H 1.39831000 1.96904500 0.21666700
9
energy = -961.922090843
C 0.02564500 -0.00466700 -0.01072200
F -0.41439800 0.37948800 -1.20517700
F -0.50230900 0.81863800 0.90866100
F -0.41303100 -1.23236500 0.23004300
S 1.93549400 0.01923900 -0.00542100
O 2.01498300 -0.67719300 1.39287400
O 3.35355100 -0.13685600 0.99719500
O 1.92156000 1.60947700 0.06551900
H 1.29194700 1.94136200 0.72374700
9
energy = -961.926001265
C 0.01744200 0.01440600 -0.00289600
F -0.39931600 0.46743800 -1.18220400
F -0.50848800 0.75675500 0.95561700
F -0.41112900 -1.23903900 0.14174400
S 1.90919100 -0.04751500 0.00334700
O 2.02953800 -0.58979800 1.45927900
O 3.37746500 -0.11479200 1.01887300
O 1.89530800 1.54881300 -0.00143400
H 2.79650600 1.85919200 0.15978500
