%chk=2003846667223680600001_r13_insertion_ROR_12_8_5_6_TS.chk
%mem=8GB
%nprocshared=4
# wb97xd/6-311++G(d,p) NoSymm pop=full density=current

2003846667223680600001 Transition State - IRC Forward Point 0

0 1
C       1.229130      0.694951      0.785308
C       0.451157     -0.551950      0.248612
F       1.278975     -1.334866     -0.431675
F      -0.053290     -1.210894      1.298647
S      -1.013856      0.119689     -0.759305
O      -3.242696     -0.473189     -0.640360
O      -0.511860      0.703072     -2.001016
O      -1.868257     -1.266374     -0.955562
F       1.872232      1.301325     -0.200381
F       0.378926      1.559850      1.342682
F       2.107727      0.314699      1.705975
H      -3.861517     -0.975559     -1.194282

