6
energy = -724.29523178
F 0.09040300 0.18521300 -0.09588900
S 1.61672200 -0.03215300 0.04868700
O 1.82265500 -0.66582200 1.28385500
O 2.06258100 -0.54481300 -1.18800400
O 2.05722600 1.45763900 0.19487800
H 2.21747600 1.84533400 -0.67697800
6
energy = -724.295271474
F -0.04908100 -0.18745700 0.09413500
S 1.48453500 0.01573500 0.02739800
O 2.01977900 -0.53701700 1.20112900
O 1.87732400 -0.35917400 -1.27502200
O 1.52603300 1.56931800 0.16696700
H 1.45512500 1.98466100 -0.70401300
6
energy = -724.2952342290001
F -0.00007300 -0.00015100 -0.00014400
S 1.54849400 0.00005400 -0.00006100
O 1.94428800 -0.54636000 1.23922700
O 1.95568600 -0.49914300 -1.24685300
O 1.78708900 1.54209200 0.00002200
H 1.80701700 1.87665900 0.90767100
