%mem=28GB
%nprocshared=8
#P M062X/Def2TZVPP ! ASE formatted method and basis
Symm(None)
scf(xqc)
pop(None)
freq
opt(CalcFC, Tight)

Gaussian input prepared by ASE

0 2
C                 1.9238345176       -0.5647364649        1.6178351620
F                 1.3451223468        0.0586658749        2.6162954380
F                 3.2117650170       -0.6863532818        1.7965858400
S                 1.4192050892        0.0000000000        0.0000000000
O                 2.2085545746       -0.7027981249       -0.9355108587
O                 0.0000000000        0.0000000000        0.0000000000
O                 1.9174072338        1.5017222400        0.0000000000
H                 1.1919580701        2.0857914852        0.2627291625


