8
energy = -862.1580141800001
C 1.88126400 -0.65407500 1.67650900
F 1.17208800 -0.24128000 2.69248600
F 3.16645700 -0.64751000 1.93849200
S 1.44398500 0.05032000 0.09421500
O 2.28434300 -0.56926600 -0.86711300
O 0.03408800 0.04701800 0.02872900
O 1.90221600 1.55551500 0.26041900
H 2.79147900 1.66784800 -0.10432600
8
energy = -862.1580000280002
C 1.95552400 -0.51150200 1.56605300
F 1.34131500 0.00561100 2.59607800
F 3.25989700 -0.44392100 1.68600500
S 1.33200700 -0.01585500 -0.03281900
O 2.09195700 -0.72744200 -0.99741600
O -0.07604000 -0.06159500 0.05305700
O 1.74895700 1.50909600 -0.09647100
H 2.59039000 1.59746600 -0.56621700
8
energy = -862.15804487
C 1.92393400 -0.56463800 1.61768800
F 1.34435700 0.05744000 2.61645700
F 3.21201700 -0.68470000 1.79640400
S 1.41901800 -0.00007300 -0.00008000
O 2.20824300 -0.70341300 -0.93524600
O -0.00024200 0.00018300 -0.00000800
O 1.91756400 1.50158100 -0.00088900
H 1.19295500 2.08591300 0.26360800
