%mem=28GB
%nprocshared=8
#P M062X/Def2TZVPP ! ASE formatted method and basis
Symm(None)
scf(xqc)
pop(None)
freq
opt(CalcFC, Tight)

Gaussian input prepared by ASE

0 1
C                -0.6337837085       -1.1893400900        0.1521998644
S                 1.6995164954        0.0000000000        0.0000000000
O                 0.0000000000        0.0000000000        0.0000000000
O                 2.0779981727       -0.4813323349        1.2950766886
O                 1.7517184545        1.5832384103        0.0000000000
F                -1.8516389453       -1.0832155520       -0.3489451828
F                 0.0050535313       -2.1716725766       -0.4897957081
F                -0.7335643168       -1.5380040600        1.4260812041
H                 2.6635715459        1.8975180948       -0.1154695619


