%mem=28GB
%nprocshared=8
#P M062X/Def2TZVPP ! ASE formatted method and basis
Symm(None)
scf(xqc)
pop(None)
freq
opt(CalcFC, Tight)

Gaussian input prepared by ASE

0 1
C                -0.6337837085        0.7264789940        0.9538987995
S                 1.6995164954        0.0000000000        0.0000000000
O                 0.0000000000        0.0000000000        0.0000000000
O                 2.0779981727       -0.4813323349        1.2950766886
O                 1.7517184545        1.5832384103        0.0000000000
F                -1.8516389453        0.2394123831        1.1125647772
F                 0.0050535313        0.6616607624        2.1256214741
F                -0.7335643168        2.0040245806        0.6189099851
H                 1.2128585777        1.9453504733       -0.7225551101


