%mem=28GB
%nprocshared=8
#P M062X/Def2TZVPP ! ASE formatted method and basis
Symm(None)
scf(xqc)
pop(None)
freq
opt(CalcFC, Tight)

Gaussian input prepared by ASE

0 1
C                -0.6337837085        0.4628610960       -1.1060986638
S                 1.6995164954        0.0000000000        0.0000000000
O                 0.0000000000        0.0000000000        0.0000000000
O                 2.0779981727       -0.4813323349        1.2950766886
O                 1.7517184545        1.5832384103        0.0000000000
F                -1.8516389453        0.8438031688       -0.7636195944
F                 0.0050535313        1.5100118142       -1.6358257660
F                -0.7335643168       -0.4660205206       -2.0449911891
H                 1.4127491018        1.9387597559        0.8380246719


