10
energy = -1099.3854140900003
C 0.03962900 -1.07172200 -0.82827400
C 0.33953100 -0.19075000 0.38514000
F 0.65065200 -0.92921300 1.43291300
S 0.77487400 1.48411300 0.35052100
O 1.41517200 1.97099800 1.51425200
O 0.82326200 2.16182800 -0.88949500
O -0.65445700 0.82147500 0.65420800
F -0.28551400 -0.34081900 -1.87621400
F 1.10825500 -1.80195400 -1.11379300
F -0.96877700 -1.88093200 -0.53300400
