%mem=28GB
%nprocshared=8
#P M062X/Def2TZVPP ! ASE formatted method and basis
Symm(None)
scf(xqc)
pop(None)
freq
opt(CalcFC, Tight)

Gaussian input prepared by ASE

0 2
C                -0.5470970123        0.4978494991        1.3150633594
C                 0.0000000000        0.0000000000        0.0000000000
F                -0.4057241822       -1.2639202817       -0.1879291546
F                -0.4296655003        0.7389995752       -1.0325467128
S                 1.8387160555        0.0000000000        0.0000000000
O                 2.2824008362       -0.4993397852        1.2435660020
O                 2.2336612762       -0.5435452659       -1.2517678239
O                 2.0903220202        1.5514539202        0.0000000000
F                -0.1405193243        1.6959966215        1.6561279802
F                -1.8471929855        0.3621203267        1.4301243979
H                 2.0988897575        1.8901831437       -0.9069030476


