%mem=28GB
%nprocshared=8
#P M062X/Def2TZVPP ! ASE formatted method and basis
Symm(None)
scf(xqc)
pop(None)
freq
opt(CalcFC, Tight)

Gaussian input prepared by ASE

0 2
C                 1.0721585159       -0.2495273677        2.8236004116
C                 1.8982689941       -0.5623448123        1.5968321511
F                 3.1751252964       -0.7611769532        1.7921437386
S                 1.4199974146        0.0000000000        0.0000000000
O                 2.2136111794       -0.6852354739       -0.9449153774
O                 0.0000000000        0.0000000000        0.0000000000
O                 1.9228951929        1.4970551773        0.0000000000
F                 0.7329318450        1.0499265323        2.8448812018
F                -0.0470402321       -0.9553394027        2.8488710289
F                 1.7717823208       -0.5098886353        3.9170026133
H                 1.2361620141        2.0738762284        0.3656297149


