%mem=28GB
%nprocshared=8
#P M062X/Def2TZVPP ! ASE formatted method and basis
Symm(None)
scf(xqc)
pop(None)
freq
opt(CalcFC, Tight)

Gaussian input prepared by ASE

0 2
C                -0.5470970123       -1.3878030264       -0.2263813663
C                 0.0000000000        0.0000000000        0.0000000000
F                -0.4057241822        0.7947115628       -1.0006224950
F                -0.4296655003        0.5247118963        1.1562657619
S                 1.8387160555        0.0000000000        0.0000000000
O                 2.2824008362       -0.4993397852        1.2435660020
O                 2.2336612762       -0.5435452659       -1.2517678239
O                 2.0903220202        1.5514539202        0.0000000000
F                -0.1405193243       -2.2822472135        0.6407121688
F                -1.8471929855       -1.4195842225       -0.4014567968
H                 1.3913834218        2.0049224936        0.4930873344


