11
energy = -1099.95703015
C -0.63430800 0.44072200 1.30128000
C -0.05659800 -0.04503600 -0.00703200
F -0.37771600 -1.32871400 -0.17112900
F -0.53990700 0.65422000 -1.04522600
S 1.78178500 0.06724700 -0.02514600
O 2.22191200 -0.34454900 1.26209700
O 2.21420000 -0.52872400 -1.22924300
O 1.98404500 1.61841600 -0.17255500
F -0.21584300 1.63895000 1.66812900
F -1.93658900 0.33693700 1.38400700
H 2.02530300 2.03506800 0.70054300
11
energy = -1099.9570807700004
C -0.47085200 0.50442200 1.31809200
C 0.04022400 -0.00210800 -0.00973900
F -0.39369100 -1.24973300 -0.19192900
F -0.39864100 0.75722200 -1.02523000
S 1.88076900 -0.05015100 -0.06159100
O 2.30642800 -0.52426200 1.20898800
O 2.23646400 -0.65804400 -1.28474200
O 2.21664600 1.47989700 -0.18466700
F 0.05404800 1.65514400 1.69901800
F -1.77569100 0.50920600 1.42356500
H 2.32112400 1.87148600 0.69468800
11
energy = -1099.9574937099999
C -0.57065400 0.46556000 1.33701100
C -0.00197200 0.01277600 0.01554400
F -0.40045800 -1.23497100 -0.22584200
F -0.41890800 0.79825000 -0.99970500
S 1.83844800 0.01624700 -0.00078700
O 2.26664300 -0.44028500 1.26688000
O 2.22975500 -0.58106200 -1.22675000
O 2.12183100 1.56111400 -0.06516900
F -0.17921300 1.65642800 1.72348100
F -1.87195700 0.32068200 1.42794100
H 2.16027500 1.85505800 -0.98686900
11
energy = -1099.95700313
C -0.61594200 0.72541800 -1.27997600
C -0.03707500 0.03243200 -0.06691500
F -0.48445800 0.63635900 1.03961100
F -0.37766500 -1.26320800 -0.02458500
S 1.79932300 0.10854600 -0.03871000
O 2.22295500 -0.54618700 1.14663100
O 2.26128200 -0.23137800 -1.33017400
O 1.98607400 1.66318000 0.13311000
F -0.47573800 0.06920700 -2.40223600
F -1.84150700 1.16699800 -1.11421900
H 2.02903500 1.89129000 1.07299200
11
energy = -1099.95706551
C -0.50315300 0.79749000 -1.21492800
C 0.08920100 0.06683800 -0.03080700
F -0.23374800 0.71656700 1.09298600
F -0.35853100 -1.19384000 0.05054700
S 1.92335200 -0.01685400 -0.11789900
O 2.36290600 -0.69598400 1.04774400
O 2.27177200 -0.40668900 -1.43070300
O 2.25407700 1.51703300 0.02035400
F -0.49192200 0.12211900 -2.33457600
F -1.67266800 1.34606500 -0.97898100
H 2.37554200 1.74845400 0.95251900
11
energy = -1099.95584581
C -0.55780300 0.76903400 -1.21283500
C 0.00561000 0.00993500 -0.02934200
F -0.42606500 0.57036100 1.09828400
F -0.36407000 -1.27891400 -0.05273100
S 1.84506100 0.03225800 -0.02312000
O 2.26219100 -0.62745400 1.15317400
O 2.27814600 -0.33234600 -1.32660900
O 2.08718700 1.57646400 0.17908000
F -0.47136700 0.14293500 -2.35864300
F -1.74971500 1.27968500 -1.01692200
H 2.26461600 1.99596000 -0.67479800
11
energy = -1099.9575314100002
C -0.53632200 -1.45921100 -0.15083400
C -0.06296000 -0.02752800 -0.08566000
F -0.51429700 0.63267000 -1.15001000
F -0.50839700 0.59507600 1.02594800
S 1.77175500 0.06918800 -0.07008900
O 2.21889300 -0.48903800 1.15615200
O 2.21858700 -0.37057500 -1.33627600
O 1.94034300 1.63146000 -0.02222500
F -0.24500200 -2.18220700 0.90137400
F -1.79047900 -1.59072500 -0.51172600
H 1.97416500 1.93417200 0.89675100
11
energy = -1099.9574872500002
C -0.52298100 -1.37087900 -0.11634300
C 0.08082700 0.01074500 -0.05062200
F -0.37044200 0.73568500 -1.07204900
F -0.24094100 0.64161000 1.09833400
S 1.91464600 -0.05688800 -0.14436200
O 2.38124100 -0.67981300 1.04282400
O 2.24457700 -0.50650400 -1.44252700
O 2.22634200 1.48266700 -0.08025600
F -0.23555800 -2.14438400 0.90042300
F -1.80332200 -1.38062500 -0.40124700
H 2.34243900 1.76020600 0.83995600
11
energy = -1099.9575502900002
C -0.54694700 -1.38765000 -0.22657700
C 0.00009000 0.00003200 0.00020400
F -0.40567100 0.79494300 -1.00024000
F -0.42959600 0.52444500 1.15659100
S 1.83884100 -0.00006700 0.00013800
O 2.28255400 -0.49905800 1.24382200
O 2.23348300 -0.54404400 -1.25154200
O 2.09055100 1.55141600 -0.00029700
F -0.14063900 -2.28212300 0.64059900
F -1.84700900 -1.41945300 -0.40204900
H 2.09813300 1.89009900 -0.90723700
