11
energy = -1099.97213992
C 1.00178700 -0.33532700 2.90470800
C 1.90434700 -0.48064600 1.70119000
F 3.19181300 -0.50969200 1.94904700
S 1.45693100 0.05521500 0.08822900
O 2.22828300 -0.69300900 -0.84004600
O 0.04609500 0.11993300 0.06835300
O 2.00175300 1.53803100 0.08009200
F 0.68361100 0.94233900 3.12033500
F -0.11960600 -1.01882700 2.74262700
F 1.63341500 -0.79094100 3.98012400
H 2.85445000 1.57075500 -0.37621600
11
energy = -1099.97215282
C 1.07575500 -0.25878800 2.82590400
C 1.89702800 -0.42540100 1.56832600
F 3.19835300 -0.37220500 1.72267000
S 1.30895700 -0.00470900 -0.03369100
O 2.05403000 -0.76360500 -0.97470300
O -0.10123400 -0.01374400 0.04529200
O 1.76895600 1.50131800 -0.15910600
F 0.71649200 1.01377600 3.00488600
F -0.02219100 -0.99553100 2.77755100
F 1.80162700 -0.63389100 3.87263700
H 2.58478300 1.55227200 -0.67700700
11
energy = -1099.97250093
C 1.07226800 -0.25006000 2.82427900
C 1.89878700 -0.56142900 1.59742800
F 3.17603600 -0.75754600 1.79291600
S 1.41994300 -0.00019300 0.00033800
O 2.21342700 -0.68612300 -0.94416700
O -0.00009400 -0.00026500 0.00088600
O 1.92287700 1.49695500 -0.00101400
F 0.73622800 1.05011600 2.84913900
F -0.04860800 -0.95328900 2.84640500
F 1.77045600 -0.51537500 3.91751100
H 1.23457200 2.07455500 0.36032500
