%mem=28GB
%nprocshared=8
#P M062X/Def2TZVPP ! ASE formatted method and basis
Symm(None)
scf(xqc)
pop(None)
freq
opt(CalcFC, Tight)

Gaussian input prepared by ASE

0 2
C                -0.5470970123        0.8899535273       -1.0886819932
C                 0.0000000000        0.0000000000        0.0000000000
F                -0.4057241822        0.4692087189        1.1885516496
F                -0.4296655003       -1.2637114715       -0.1237190491
S                 1.8387160555        0.0000000000        0.0000000000
O                 2.2824008362       -0.4993397852        1.2435660020
O                 2.2336612762       -0.5435452659       -1.2517678239
O                 2.0903220202        1.5514539202        0.0000000000
F                -0.1405193243        0.5862505921       -2.2968401490
F                -1.8471929855        1.0574638959       -1.0286676011
H                 1.3913834218        2.0049224936        0.4930873344


