%mem=28GB
%nprocshared=8
#P M062X/Def2TZVPP ! ASE formatted method and basis
Symm(None)
scf(xqc)
pop(None)
freq
opt(CalcFC, Tight)

Gaussian input prepared by ASE

0 2
C                -0.6196340000       -1.3303820000        0.1932060000
C                 0.0415450000        0.0636440000        0.0895340000
F                -0.2327990000        0.6020510000       -1.0905960000
F                -0.4001590000        0.8444710000        1.0630040000
S                 1.9468410000       -0.0096660000        0.2493770000
O                 2.2134540000       -0.2543830000        1.6420450000
O                 2.3789470000       -0.9037900000       -0.7936400000
F                -0.2981680000       -2.0688710000       -0.8517160000
F                -0.2276500000       -1.9354540000        1.3014560000
F                -1.9359100000       -1.1734380000        0.2254220000


