10
energy = -1124.02280298
C -0.61963400 -1.33038200 0.19320700
C 0.04154400 0.06364400 0.08953400
F -0.23279900 0.60204900 -1.09059600
F -0.40015900 0.84447200 1.06300200
S 1.94684100 -0.00966600 0.24937700
O 2.21345400 -0.25439500 1.64204400
O 2.37894900 -0.90377900 -0.79364700
F -0.29816300 -2.06887500 -0.85171000
F -0.22765600 -1.93545000 1.30146200
F -1.93591100 -1.17343700 0.22541800
