%mem=28GB
%nprocshared=8
#P M062X/Def2TZVPP ! ASE formatted method and basis
Symm(None)
scf(xqc)
pop(None)
freq
opt(CalcFC, Tight)

Gaussian input prepared by ASE

0 1
C                -0.5946776218        0.4796408367        1.3352036846
C                 0.0000000000        0.0000000000        0.0000000000
F                -0.4367894432       -1.2405505578       -0.2560026260
F                -0.4102563131        0.8177327808       -0.9742009609
S                 1.8837227134        0.0000000000        0.0000000000
O                 2.2221923919       -0.5094300840       -1.3155307862
O                 1.9776073105        1.6018125571        0.0000000000
F                -0.4265012744       -0.4226314797        2.2822539625
F                 0.0127178336        1.6096176019        1.6925586834
F                -1.8914278767        0.7200944646        1.1956379779
H                 1.5887863625        1.9665277755       -0.8120789677


