11
energy = -1124.6519495700002
C -0.74119500 0.49645400 1.29797700
C -0.09728900 0.04482000 -0.02979500
F -0.48974200 -1.21181600 -0.27708700
F -0.50278800 0.83368500 -1.01710700
S 1.77737900 -0.03996200 -0.01362500
O 2.11216400 -0.23317400 -1.40688400
O 1.85171800 1.54250800 0.35565300
F -0.08856600 -0.07095600 2.31329200
F -0.69856900 1.80822600 1.43907600
F -2.00766800 0.10737300 1.34087900
H 2.72104300 1.75086500 0.71821400
11
energy = -1124.6519270200001
C -0.56465000 0.57468000 1.28318300
C -0.01722000 0.05901800 -0.06434900
F -0.50100100 -1.17365200 -0.26651700
F -0.41949300 0.85523700 -1.04706100
S 1.84670500 -0.14676100 -0.13602200
O 2.10069000 -0.38352900 -1.53964100
O 2.03977300 1.43324600 0.19887000
F 0.09789000 -0.01797800 2.27744700
F -0.42891900 1.88287900 1.39593300
F -1.85039400 0.27177200 1.39393700
H 2.93725900 1.59081200 0.51554600
11
energy = -1124.65588077
C -0.63325200 0.49238300 1.33342500
C -0.00767000 0.06857500 -0.00453700
F -0.46894500 -1.13995700 -0.32327100
F -0.37091800 0.94353400 -0.95424200
S 1.88016200 -0.05042000 0.00911900
O 2.14177400 -0.59629100 -1.30808100
O 2.11282200 1.53702600 -0.00524400
F -0.21618700 -0.33040800 2.29035600
F -0.27697100 1.72980100 1.64622200
F -1.95483100 0.43358800 1.26324600
H 1.71939100 1.93498200 -0.79915300
11
energy = -1124.6512204800003
C -0.71739300 0.79963600 -1.24157600
C -0.06624400 0.02261600 -0.07585600
F -0.58026700 0.44571900 1.08083300
F -0.35666900 -1.27683300 -0.22784600
S 1.80084500 0.10367500 0.02062900
O 2.25779100 0.02869400 -1.35031200
O 1.77827400 1.65243000 0.50106400
F -0.32009700 2.06187700 -1.24470600
F -0.41468600 0.23957700 -2.39792200
F -2.03827100 0.77060600 -1.08804700
H 2.49320400 1.80284500 1.13036500
11
energy = -1124.65127905
C -0.62174200 0.95791900 -1.09287000
C 0.03320700 0.04367600 -0.02961400
F -0.36814700 0.43680600 1.18530000
F -0.37481900 -1.21025700 -0.23979500
S 1.90403800 -0.04919800 -0.00021800
O 2.29474100 -0.70441700 -1.22723800
O 2.00963700 1.56469400 -0.16919600
F -0.57365300 2.22651200 -0.72253300
F -0.01755100 0.81667000 -2.26077900
F -1.89826500 0.61204600 -1.22695200
H 2.85319300 1.87409200 0.18125400
11
energy = -1124.6553989200002
C -0.66140400 0.78122700 -1.22710900
C 0.00005200 -0.00905200 -0.07911700
F -0.43327100 0.47639500 1.08746100
F -0.36690700 -1.29219300 -0.18119300
S 1.88215800 0.00421200 -0.08974800
O 2.22187000 -0.07070000 -1.49962000
O 2.07191600 1.50804000 0.43316900
F -0.12091300 2.00563600 -1.29594000
F -0.49628500 0.17546100 -2.38317400
F -1.95848500 0.91829600 -0.99291800
H 1.78664300 2.14831000 -0.23793700
11
energy = -1124.65193979
C -0.61863600 -1.44548900 -0.27320200
C -0.11715900 -0.00910800 -0.03232100
F -0.55476500 0.77596100 -1.01044200
F -0.60467100 0.41638200 1.13996100
S 1.75357000 0.05928800 0.08028900
O 2.21807800 -0.36926000 -1.22112200
O 1.67950700 1.68048400 0.12172500
F -0.33427700 -1.84973200 -1.49616700
F -0.03429700 -2.26208500 0.60299800
F -1.93117500 -1.50106000 -0.09502500
H 2.38031300 2.01811200 0.69151300
11
energy = -1124.65195527
C -0.58386000 -1.38118100 -0.22525800
C 0.03944500 0.01729600 -0.05644000
F -0.43346300 0.82308700 -1.00068200
F -0.30117800 0.48754700 1.15008400
S 1.91235800 -0.04846300 -0.12420300
O 2.21774500 -0.52069400 -1.45713700
O 1.95747700 1.57420800 -0.10128800
F -0.44872000 -1.81605500 -1.46322500
F 0.02295400 -2.22998200 0.60378800
F -1.87359400 -1.34007200 0.07876500
H 2.73147500 1.86550300 0.39453700
11
energy = -1124.65652858
C -0.59498800 -1.39652000 -0.25165500
C 0.00049400 -0.00049300 -0.00092000
F -0.43638600 0.84098400 -0.94761800
F -0.40897500 0.43528000 1.19431700
S 1.88419100 -0.00074600 -0.00202300
O 2.22174200 -0.50679400 -1.31910900
O 1.97786900 1.60108700 0.00189500
F -0.42537800 -1.76792300 -1.50568600
F 0.01066500 -2.27011400 0.55056700
F -1.89208500 -1.39430300 0.02456500
H 1.58822400 1.96782700 -0.80887500
