%mem=28GB
%nprocshared=8
#P M062X/Def2TZVPP ! ASE formatted method and basis
Symm(None)
scf(xqc)
pop(None)
freq
opt(CalcFC, Tight)

Gaussian input prepared by ASE

0 1
C                -0.5946776218       -1.3961407284       -0.2522206930
C                 0.0000000000        0.0000000000        0.0000000000
F                -0.4367894432        0.8419800565       -0.9463469848
F                -0.4102563131        0.4348163901        1.1952778422
S                 1.8837227134        0.0000000000        0.0000000000
O                 2.2221923919       -0.5094300840       -1.3155307862
O                 1.9776073105        1.6018125571        0.0000000000
F                -0.4265012744       -1.7651741695       -1.5071365791
F                 0.0127178336       -2.2706076182        0.5476903919
F                -1.8914278767       -1.3955000948        0.0258011105
H                 2.9040521634        1.8894381065        0.0514066895


