%mem=28GB
%nprocshared=8
#P M062X/Def2TZVPP ! ASE formatted method and basis
Symm(None)
scf(xqc)
pop(None)
freq
opt(CalcFC, Tight)

Gaussian input prepared by ASE

0 1
C                -0.5946776218        0.9164998917       -1.0829829916
C                 0.0000000000        0.0000000000        0.0000000000
F                -0.4367894432        0.3985705014        1.2023496108
F                -0.4102563131       -1.2525491710       -0.2210768812
S                 1.8837227134        0.0000000000        0.0000000000
O                 2.2221923919       -0.5094300840       -1.3155307862
O                 1.9776073105        1.6018125571        0.0000000000
F                -0.4265012744        2.1878056492       -0.7751173834
F                 0.0127178336        0.6609900163       -2.2402490754
F                -1.8914278767        0.6754056303       -1.2214390884
H                 1.5887863625        1.9665277755       -0.8120789677


