11
energy = -1199.2101994900002
C -0.61269000 -1.32807900 0.18231700
C 0.05081900 0.06510400 0.07391700
F -0.25691100 0.60493600 -1.10432400
F -0.40307200 0.83936500 1.05453800
S 1.88845300 0.01309900 0.19063800
O 2.21237300 -0.15491800 1.61102900
O 2.34495800 -0.96352400 -0.72369300
O 2.30812200 1.40478300 -0.00813200
F -0.35702500 -2.04982400 -0.89213600
F -0.15172700 -1.95683400 1.25566000
F -1.92124400 -1.17204200 0.29917900
