%mem=28GB
%nprocshared=8
#P M062X/Def2TZVPP ! ASE formatted method and basis
Symm(None)
scf(xqc)
pop(None)
opt(NoFreeze,TS,CalcAll,NoEigentest,MaxCycle=999)

Gaussian input prepared by ASE

0 1
C                 1.7866199824       -0.9727523754       -1.1309514343
C                 2.2432902081        0.0325539283       -0.1006901225
F                -0.2885936996        0.3472539692        0.1030744982
F                 3.0054551816       -0.4766163137        0.8461999238
S                 1.8920641267        1.6705155847       -0.0466727264
O                 0.4254642843        1.8965219710       -0.1822316730
O                 2.4736952686        2.4133127291        1.0046744108
O                 2.3586058952        2.2746887977       -1.3983664170
F                 1.0165166398       -0.4556232304       -2.0746114780
F                 2.8088473112       -1.5372687020       -1.7907081228
F                 1.0993852036       -1.9880688211       -0.6306106445
H                 3.1887315982        2.0647094626       -1.8531252144


