%mem=28GB
%nprocshared=8
#P am1 
Symm(None)
scf(xqc)
pop(None)
force

Gaussian input prepared by ASE

0 1
C                -0.1886326845        0.5561769488        0.3394675177
C                 1.6895754724       -0.5003281457       -0.5173960605
F                 2.0560062306       -1.6205131632        0.1145503380
F                 1.4128041465       -0.8799666596       -1.7809222797
S                 2.5468622934        1.0673658967       -0.1724458943
O                 1.3044725245        1.6766761298        0.3621972500
O                 3.6575457695        1.3455758153        0.6714288616
O                 2.7770037395        1.8942866800       -1.5027419110
F                -0.8412075515        1.5685830935        0.8708183854
F                -0.6269776422        0.3209288265       -0.8623588153
F                -0.1025659696       -0.4195251961        1.1953171711
H                 3.0736036715        2.8149187740       -1.4605115630


