%mem=28GB
%nprocshared=8
#P M062X/Def2TZVPP ! ASE formatted method and basis
Symm(None)
scf(xqc)
pop(None)
opt(NoFreeze,TS,CalcAll,NoEigentest,MaxCycle=999)

Gaussian input prepared by ASE

0 1
C                -0.2172697123       -1.1328807273        1.0452795888
C                 0.0000000000        0.0000000000        0.0000000000
F                -0.6255016884       -0.2753523103       -1.1225329380
F                -0.5737114324        1.1272717471        0.4164124197
S                 1.8523257272        0.0000000000        0.0000000000
O                 1.8323805505       -0.2551334152        1.4359654132
O                 2.7340937383       -0.1345265274       -1.1113865204
O                 1.8605215172        1.6229854612        0.0000000000
F                 1.3872770657       -1.8448451691       -0.2596306599
F                -0.0870246180       -1.0240041903        2.2927481218
F                -0.7363658185       -2.2314172554        0.7560097812
H                 2.3058356860        2.1041893898       -0.7066218443


