%mem=28GB
%nprocshared=8
#P M062X/Def2TZVPP ! ASE formatted method and basis
Symm(None)
scf(xqc)
pop(None)
opt(NoFreeze,TS,CalcAll,NoEigentest,MaxCycle=999)

Gaussian input prepared by ASE

0 1
C                 1.9848604247       -1.0428073902       -1.1932186581
C                 2.0291486604       -0.1047621818       -0.0105337576
F                -0.3534894600        0.7615471656        0.3409695922
F                 1.9693867023       -0.6886283237        1.1694241845
S                 1.9774406316        1.5691024990       -0.0791243135
O                 0.6772031307        2.1503844614        0.3589051802
O                 3.0352182268        2.2925002187        0.5151649871
O                 2.0154730700        1.9528604701       -1.5828019643
F                 1.3839720797       -0.5406320604       -2.2598633236
F                 3.2049953020       -1.3990285407       -1.6213444444
F                 1.3619335129       -2.1834708270       -0.9395338544
H                 2.7239397189        2.5021615089       -1.9520626280


