12
energy = -1199.68922033
C -0.86047800 0.64479800 -1.06615700
C -0.10233700 0.02920000 0.12764200
F -0.50528700 0.64799500 1.23696100
F -0.42845000 -1.26769300 0.18454900
S 1.90821400 0.05959900 -0.24111900
O 2.00013000 -0.45309300 1.18561200
O 3.42419100 -0.18514400 0.09931200
O 1.87088300 1.65742500 -0.19788200
F -0.76067000 1.96393700 -1.07126800
F -0.36346200 0.17182500 -2.20747200
F -2.14681400 0.32061400 -1.00215500
H 2.75786000 1.99080900 -0.00561600
12
energy = -1199.68837702
C -0.74860900 0.64928300 -1.11986400
C -0.06585800 0.02915200 0.10809100
F -0.47872200 0.71403000 1.19839400
F -0.46699500 -1.23599600 0.19982300
S 1.99443900 0.23188400 -0.14103400
O 2.01931100 -0.73516700 1.03118400
O 3.47641300 -0.13904200 0.13211400
O 1.96985200 1.70776400 0.46079100
F -0.38778800 1.92340200 -1.24926200
F -0.38786000 -0.00961700 -2.21337300
F -2.06913900 0.59546800 -1.00546200
H 1.21896000 1.85590800 1.05379200
12
energy = -1199.68921144
C -0.73018100 0.74200600 -1.02449100
C -0.05765400 0.00735300 0.15323000
F -0.52453300 0.52923200 1.28705100
F -0.40114300 -1.28355900 0.06977100
S 1.97256800 0.03828800 -0.08299000
O 1.96644000 -0.60640500 1.29229600
O 3.46065800 -0.26169000 0.32874100
O 1.94881100 1.62554100 0.10767600
F -0.61587300 2.05427300 -0.90157200
F -0.16539000 0.36716200 -2.17072100
F -2.02139300 0.43481300 -1.07255900
H 2.82503400 1.92510600 0.38574100
12
energy = -1199.6915181200002
C -0.73396400 -1.21814300 0.00386200
C 0.00857200 0.10477100 -0.21074900
F -0.33106300 0.59529900 -1.40899800
F -0.38233900 0.99790200 0.72263500
S 2.06360500 0.00800900 -0.32542300
O 1.94059500 -0.77983900 0.97038200
O 3.48658400 -0.46140000 0.07603300
O 2.17067500 1.55598200 0.04353800
F -0.19236400 -2.15151000 -0.77403200
F -0.66137700 -1.60620900 1.26566500
F -2.01600500 -1.08984300 -0.32259500
H 1.44086100 1.85652000 0.60540000
12
energy = -1199.6914948100004
C -0.75363500 -1.25228100 -0.01053200
C -0.06654800 0.11679000 -0.04293700
F -0.44475800 0.75799600 -1.15545400
F -0.47593200 0.85203900 1.01217600
S 1.98816700 0.11999000 -0.19330000
O 1.91745400 -0.84443300 0.98126000
O 3.43474800 -0.34284000 0.12253400
O 2.04136600 1.60477500 0.38670300
F -0.18901400 -2.04314600 -0.91906400
F -0.64507400 -1.81190800 1.18239600
F -2.04489900 -1.13149000 -0.30148100
H 1.31213000 1.79284400 0.99620200
12
energy = -1199.69198734
C -0.73865500 -1.24594500 -0.01692300
C -0.06770100 0.13203700 0.05252500
F -0.45369300 0.84327600 -1.01746600
F -0.45774600 0.77280300 1.15058200
S 1.96523400 0.06194400 -0.18892900
O 1.93754200 -0.81507000 1.05310100
O 3.44074500 -0.35018000 0.17087600
O 1.99174900 1.59470700 0.26222100
F -0.16568500 -1.96441300 -0.98262200
F -0.61504300 -1.89284200 1.13006900
F -2.03177500 -1.12483000 -0.29487100
H 2.85237300 1.79190000 0.65691800
12
energy = -1199.6918296900003
C -0.78924400 0.55162900 1.14971400
C 0.03558800 -0.02440400 -0.00563500
F -0.35057400 -1.27363300 -0.25467700
F -0.23195000 0.73704600 -1.09857100
S 2.10632000 -0.06401200 -0.01481000
O 1.92579200 -0.39703600 1.45531200
O 3.50534500 -0.35022700 0.58977000
O 2.24121400 1.52193400 -0.14173800
F -0.67582700 -0.19335500 2.23458100
F -0.36386500 1.78554600 1.41925400
F -2.07559600 0.61858800 0.81670400
H 1.46657700 1.90438900 -0.57791900
12
energy = -1199.6918334299999
C -0.86008400 0.45039500 1.25985800
C -0.01011100 0.02110700 0.05980400
F -0.36850600 -1.19968900 -0.33134700
F -0.27926600 0.89380600 -0.94599700
S 2.06121200 0.02104900 0.07675200
O 1.86816800 -0.47705000 1.49779900
O 3.45767900 -0.30475700 0.66714500
O 2.16604600 1.61348400 0.12887700
F -0.74526300 -0.40803800 2.25718800
F -0.46209400 1.65437600 1.67003500
F -2.14336900 0.53063500 0.91822100
H 1.38959200 2.02794100 -0.27356500
12
energy = -1199.6926578800003
C -0.81586100 0.53694600 1.18480800
C 0.00001600 -0.00028500 -0.00018000
F -0.33819400 -1.27495900 -0.21968800
F -0.31076100 0.71910600 -1.08579300
S 2.03283200 -0.00065300 0.00014500
O 1.90793200 -0.47901700 1.43838300
O 3.47265000 -0.28638200 0.56694000
O 2.04782900 1.59568000 -0.00462400
F -0.67056700 -0.24409900 2.24455300
F -0.42573400 1.76594500 1.49750500
F -2.10745400 0.57374700 0.86624500
H 2.86465500 1.90228100 0.41345600
