%mem=28GB
%nprocshared=8
#P M062X/Def2TZVPP ! ASE formatted method and basis
Symm(None)
scf(xqc)
pop(None)
opt(NoFreeze,TS,CalcAll,NoEigentest,MaxCycle=999)

Gaussian input prepared by ASE

0 1
C                 0.1208608695        0.3117264322       -1.5202886184
C                 0.0000000000        0.0000000000        0.0000000000
F                -0.6073249536        1.0201346316        0.6031794740
F                -0.7996306483       -0.9911514284        0.3243043138
S                 1.8521475855        0.0000000000        0.0000000000
O                 2.4016303672       -0.3176460774        1.2758433710
O                 2.2995957770       -0.2753081382       -1.3607211308
O                 1.8707364810        1.6228067570        0.0000000000
F                -0.2950145836       -0.4478516914       -2.4204354071
F                 0.9230502310       -1.5391697520       -0.6772084114
F                 0.4851301036        1.4109068542       -2.0146363452
H                 2.5655556680        2.1108864820       -0.4562859026


