%mem=28GB
%nprocshared=8
#P M062X/Def2TZVPP ! ASE formatted method and basis
Symm(None)
scf(xqc)
pop(None)
opt(NoFreeze,TS,CalcAll,NoEigentest,MaxCycle=999)

Gaussian input prepared by ASE

0 1
C                -0.2198400000        0.5093380000        0.4506600000
C                 1.6383570000       -0.4153240000       -0.5838390000
F                 2.5536260000       -1.3638620000       -0.3580060000
F                 1.3686920000       -0.4301210000       -1.9045540000
S                 2.3149660000        1.2267430000       -0.1870870000
O                 0.9957870000        1.8657620000        0.0410710000
O                 3.2603450000        1.2332830000        0.8756260000
O                 2.8429980000        2.0656300000       -1.4215510000
F                -1.0192820000        1.4764520000        0.8490780000
F                -0.8479430000       -0.0986990000       -0.5124870000
F                 0.0695340000       -0.1948570000        1.5052940000
H                 3.8012500000        1.9498340000       -1.4968020000


