%mem=28GB
%nprocshared=8
#P M062X/Def2TZVPP ! ASE formatted method and basis
Symm(None)
scf(xqc)
pop(None)
opt(NoFreeze,TS,CalcAll,NoEigentest,MaxCycle=999)

Gaussian input prepared by ASE

0 1
C                -0.1289072638        0.4741263570        0.0383350235
C                 1.8500496141       -0.1553589344        0.3087352324
F                 2.0066097410       -0.5738284827        1.5641745603
F                 2.0917265736       -1.2116355786       -0.4615602128
S                 2.6076057394        1.4825682587       -0.1701555919
O                 2.7806035551        2.4979169764        0.8040112557
O                 2.9793075263        1.7253470136       -1.5182024774
O                 0.8293158395        1.7792684538       -0.3297691726
F                -0.2913086468        0.1570819753        1.3049788377
F                -1.2585820271        1.2504783941       -0.2191129305
F                -0.1959319720       -0.4629922739       -0.8922462634
H                 0.4256983205        2.6291658409       -0.0825492611


