12
energy = -1199.6259204500002
C 1.88444800 -0.99009200 -1.19728000
C 2.22856400 0.00662600 -0.11618600
F -0.28355900 0.45989100 0.07031100
F 2.47562000 -0.53705100 1.05860300
S 1.93450100 1.65636700 -0.08335900
O 0.52149100 1.97853000 0.26302800
O 2.85650500 2.32634700 0.75115200
O 2.02152700 2.09803600 -1.56899600
F 1.27801400 -0.42562300 -2.22906900
F 3.01752500 -1.55147400 -1.64437400
F 1.12931100 -1.96863200 -0.72217200
H 2.94613500 2.21630200 -1.83567700
12
energy = -1199.62592483
C 1.88858500 -0.99038600 -1.19637900
C 2.22924600 0.00785000 -0.11559100
F -0.28421200 0.45481000 0.06852100
F 2.47653900 -0.53447000 1.05977400
S 1.93096600 1.65685800 -0.08408100
O 0.51682100 1.97561800 0.26082000
O 2.85049200 2.32974800 0.75082900
O 2.01827800 2.09780500 -1.56992200
F 1.28177400 -0.42802000 -2.22909700
F 3.02343400 -1.54931200 -1.64203200
F 1.13535200 -1.97044700 -0.72138300
H 2.94280700 2.21917400 -1.83547800
12
energy = -1199.62592147
C 1.88420800 -0.99034000 -1.19686900
C 2.22857100 0.00665200 -0.11610400
F -0.28349100 0.46020400 0.07069900
F 2.47556700 -0.53667200 1.05886000
S 1.93469000 1.65643700 -0.08382300
O 0.52170700 1.97884900 0.26246300
O 2.85678300 2.32662600 0.75043000
O 2.02179800 2.09758900 -1.56961600
F 1.27767000 -0.42608100 -2.22871800
F 3.01714500 -1.55197100 -1.64398700
F 1.12903000 -1.96866300 -0.72137500
H 2.94640300 2.21659700 -1.83598000
12
energy = -1199.6259259400003
C 1.88565400 -0.98867800 -1.20079200
C 2.22783900 0.00540400 -0.11665300
F -0.28479100 0.45810700 0.06670700
F 2.47255200 -0.54122600 1.05725600
S 1.93352100 1.65503800 -0.08017600
O 0.51994700 1.97622300 0.26478500
O 2.85413500 2.32300900 0.75747600
O 2.02295200 2.10041300 -1.56456000
F 1.28194700 -0.42150800 -2.23270500
F 3.01946800 -1.54966100 -1.64647800
F 1.12887900 -1.96790100 -0.72969500
H 2.94798000 2.22000600 -1.82918500
