%mem=28GB
%nprocshared=8
#P am1 
Symm(None)
scf(xqc)
pop(None)
force

Gaussian input prepared by ASE

0 1
C                -0.5071466262       -0.9221403789       -0.1442323701
C                 0.1106603916        0.1564123627        0.7928357566
F                -0.3879835379        1.3477039022        0.4679935746
F                -0.2288986576        0.0829822636        2.0602233408
S                 1.7310075163       -0.3173383964        0.0309393778
O                 2.8313899982        0.3909107608        0.5949856438
O                 1.5981417500       -1.6700756923       -0.4982250080
O                 1.3863426597        0.5579597603       -1.2915229434
F                -1.0893885044       -1.9480757358        0.2664093205
F                 0.9690979490       -1.4563565469        1.3774192759
F                -0.6456623064       -0.8148530285       -1.3910572098
H                 1.6803763676        1.4724707291       -1.3715617587


