%mem=28GB
%nprocshared=8
#P M062X/Def2TZVPP ! ASE formatted method and basis
Symm(None)
scf(xqc)
pop(None)
freq
opt(CalcFC, Tight)

Gaussian input prepared by ASE

0 1
C                 1.9320850259        0.4989341899       -2.8280768182
C                 1.3453298117        0.0000000000        0.0000000000
F                 0.0000000000        0.0000000000        0.0000000000
F                 1.7661500943       -0.6670329226        1.0561603273
S                 1.8744692527       -0.8723556680       -1.5669137743
O                 0.8609794306       -1.7748253586       -1.9897850225
O                 3.2233651270       -1.2732691274       -1.3045710773
O                 1.8664911669        1.2301010413        0.0000000000
F                 2.9656732195        1.2867617446       -2.6231746940
F                 2.0322523225       -0.0655668354       -4.0149545561
F                 0.8120384021        1.1961879672       -2.7568626335
H                 1.7407165877        1.6401834015       -0.8686888703


