12
energy = 0
C 1.78661998 -0.97275238 -1.13095143
C 2.24329021 0.03255393 -0.10069012
F -0.28859370 0.34725397 0.10307450
F 3.00545518 -0.47661631 0.84619992
S 1.89206413 1.67051558 -0.04667273
O 0.42546428 1.89652197 -0.18223167
O 2.47369527 2.41331273 1.00467441
O 2.35860590 2.27468880 -1.39836642
F 1.01651664 -0.45562323 -2.07461148
F 2.80884731 -1.53726870 -1.79070812
F 1.09938520 -1.98806882 -0.63061064
H 3.18873160 2.06470946 -1.85312521
12
energy = 0
C 1.89271589 -0.99795063 -1.17994081
C 2.15417800 -0.04068828 -0.04155898
F -0.32177498 0.52767718 0.27086665
F 2.53879138 -0.61093987 1.08255676
S 1.91464104 1.61809942 -0.05709765
O 0.49741111 2.04337656 0.11888212
O 2.79287041 2.39519343 0.73043728
O 2.11102860 2.05425795 -1.53390501
F 1.28884667 -0.44355762 -2.21867385
F 3.02091683 -1.52700120 -1.67610050
F 1.14293189 -2.03815971 -0.84935183
H 2.97752517 2.28891976 -1.90013319
12
energy = 0
C 1.98486042 -1.04280739 -1.19321866
C 2.02914866 -0.10476218 -0.01053376
F -0.35348946 0.76154717 0.34096959
F 1.96938670 -0.68862832 1.16942418
S 1.97744063 1.56910250 -0.07912431
O 0.67720313 2.15038446 0.35890518
O 3.03521823 2.29250022 0.51516499
O 2.01547307 1.95286047 -1.58280196
F 1.38397208 -0.54063206 -2.25986332
F 3.20499530 -1.39902854 -1.62134444
F 1.36193351 -2.18347083 -0.93953385
H 2.72393972 2.50216151 -1.95206263
