12
energy = -1199.7002092799999
C -0.13875500 0.49746400 0.00851500
C 1.80162200 -0.19022700 0.39277600
F 2.15300600 -0.36501700 1.66624900
F 2.35250800 -1.15885300 -0.33232500
S 2.48650700 1.45503300 -0.16407700
O 3.19593700 2.30342900 0.72293800
O 2.57570200 1.56399100 -1.57634700
O 0.76088200 1.88315200 0.17467800
F -0.51274200 -0.10076800 1.11915900
F -1.25640600 1.28982400 -0.25261500
F -0.09799000 -0.21932500 -1.10198800
H 0.37591600 2.63343500 -0.31032400
12
energy = -1199.70020963
C -0.13871400 0.49619600 0.01002500
C 1.80272600 -0.18844000 0.39574600
F 2.15468800 -0.35847800 1.66971600
F 2.35436400 -1.15904800 -0.32614900
S 2.48585300 1.45553200 -0.16683400
O 3.19474200 2.30747900 0.71722100
O 2.57456700 1.56002700 -1.57947600
O 0.75998700 1.88334000 0.17104000
F -0.51147700 -0.09890800 1.12271000
F -1.25708200 1.28675800 -0.25297900
F -0.09778600 -0.22410400 -1.09814700
H 0.37431800 2.63178600 -0.31623500
12
energy = -1199.70016507
C -0.14383500 0.53295400 0.13313800
C 1.80501600 -0.23180500 0.24306300
F 2.30667800 -0.70262300 1.38081900
F 2.21575800 -1.01438900 -0.75443500
S 2.48392000 1.47977500 -0.06246200
O 2.50061300 2.28031700 1.10942900
O 3.25141100 1.78171700 -1.21569100
O 0.78588200 1.65876600 -0.66056600
F -0.16823900 0.47103000 1.45351600
F -1.25970100 1.33612300 -0.09627300
F -0.47057900 -0.54653900 -0.54407500
H 0.38926300 2.54681400 -0.63982200
12
energy = -1199.7001642
C -0.14385100 0.53061900 0.12710100
C 1.80600800 -0.23046800 0.24678400
F 2.30322200 -0.69989700 1.38706900
F 2.22291300 -1.01266100 -0.74847900
S 2.48296800 1.48226300 -0.05615400
O 2.49202800 2.28322000 1.11554100
O 3.25569500 1.78543900 -1.20556300
O 0.78767300 1.65754200 -0.66300500
F -0.17443100 0.46937000 1.44738000
F -1.26000300 1.33166500 -0.10807800
F -0.46535700 -0.54983000 -0.55106600
H 0.38932300 2.54487600 -0.64489000
