12
energy = -1199.7222795600003
C -0.25940100 -1.34287900 -0.03330600
C 0.06122400 0.02471900 -0.08816700
F -0.21158900 0.63078400 -1.22564800
F -0.29029500 0.73397400 0.97411100
S 2.31645800 -0.10694000 -0.02766400
O 2.97210600 -0.15945100 1.24063400
O 2.78561100 -0.31758900 -1.35048400
O 2.00548100 1.50086200 -0.10415700
F 1.79714200 -1.81408700 0.14363100
F -0.50670000 -1.93748000 1.05734900
F -0.37256400 -2.04452400 -1.08029700
H 2.08972800 1.84941300 0.79298700
12
energy = -1199.7222589
C -0.21970500 -1.26370100 0.00689200
C 0.21115300 0.07420700 -0.01328500
F -0.05627700 0.74458600 -1.11538300
F -0.03648400 0.76770800 1.08804200
S 2.44816200 -0.24238700 -0.05283200
O 3.14075100 -0.39658000 1.18728200
O 2.85159500 -0.43912000 -1.39920100
O 2.26892200 1.38719400 -0.06119000
F 1.79707400 -1.90747900 0.07618800
F -0.47041400 -1.87841100 1.08551400
F -0.43342600 -1.91238900 -1.05836600
H 2.41006000 1.69330800 0.84425800
12
energy = -1199.72227188
C -0.23243400 -1.29346900 -0.01825200
C 0.15735500 0.05709600 -0.01926700
F -0.11134800 0.72541000 -1.13116300
F -0.13020600 0.73618900 1.07237500
S 2.40300900 -0.19042800 0.02373800
O 2.81351300 -0.35320500 1.37252600
O 3.09867400 -0.34303900 -1.21486000
O 2.17418500 1.43289300 0.00669200
F 1.80326700 -1.87646200 -0.07749500
F -0.42643200 -1.93159100 1.05713800
F -0.46378700 -1.93252500 -1.08699700
H 2.30592500 1.72899200 -0.90348300
