12
energy = -1199.6649406300003
C 2.34178200 0.02390900 -2.61583700
C 2.55155500 -0.42782900 -1.20892500
F -0.42070700 -1.30554200 -0.31433500
F 3.08554100 -1.66030800 -1.11508600
S 1.57147300 0.00506200 0.01398500
O -0.08176900 0.04081100 -0.22795300
O 1.81860000 -0.66017200 1.23616900
O 1.51846600 1.55802600 0.06881900
F 1.80321800 1.25139000 -2.64522500
F 3.50215900 0.06453300 -3.26782800
F 1.53591800 -0.78330900 -3.31092000
H 2.35553300 1.92751300 -0.25125100
12
energy = -1199.66339898
C 2.45301600 0.03932900 -2.59077300
C 2.52530600 -0.61238900 -1.25238000
F -0.52607600 -0.89779900 -0.11380900
F 2.90539100 -1.90006500 -1.26815800
S 1.78414100 -0.09941900 0.07285700
O 0.14399800 0.31228600 -0.01359700
O 1.93755300 -0.90567300 1.22613200
O 2.12852800 1.41184400 0.21123100
F 1.84580700 1.22624300 -2.51868700
F 3.66726700 0.22748900 -3.10968600
F 1.77827500 -0.71572700 -3.46163600
H 1.43000500 1.90931700 0.66838100
12
energy = -1199.66486889
C 2.43832400 0.01577200 -2.60035300
C 2.61852000 -0.52289300 -1.22019000
F -0.42150900 -1.06788500 -0.29698600
F 2.99755100 -1.81467000 -1.19390100
S 1.72327100 -0.03076600 0.04462800
O 0.08319800 0.22055700 -0.15505100
O 1.90891500 -0.77880500 1.22931000
O 1.86501700 1.51246400 0.17072200
F 2.05337500 1.29935400 -2.56279200
F 3.58207900 -0.05460500 -3.27873600
F 1.52640900 -0.65491900 -3.30954900
H 2.73724300 1.79010900 -0.14827500
12
energy = -1199.6684765799998
C 2.42365600 0.06468200 -2.58539500
C 2.45517500 -0.55828800 -1.23504800
F -0.61896800 0.62194500 0.80348300
F 2.69345400 -1.88229200 -1.24248800
S 1.70984400 0.03435200 0.06939600
O 0.11365500 0.02800600 -0.25755500
O 1.93916300 -0.59454900 1.30835100
O 1.93943800 1.56350300 0.17424700
F 2.01468900 1.35338800 -2.51101500
F 3.62300500 0.06039500 -3.15793500
F 1.59480800 -0.56053300 -3.42016200
H 1.69385000 2.03091800 -0.64149300
12
energy = -1199.66937846
C 2.44683300 0.08947500 -2.57699700
C 2.40619800 -0.61519600 -1.26168000
F -0.36353300 0.96768800 0.92616200
F 2.67878800 -1.92670700 -1.31179900
S 1.77116100 -0.06182000 0.10025800
O 0.16516900 0.19403300 -0.15479900
O 1.91930800 -0.84552000 1.26609500
O 2.19568000 1.42433500 0.24376600
F 1.95754600 1.32615200 -2.48707100
F 3.69354800 0.17063800 -3.04387700
F 1.73624100 -0.57205800 -3.49261700
H 1.46627200 1.97185900 0.58520700
12
energy = -1199.6687094499998
C 2.44700700 0.04414800 -2.65587300
C 2.48464200 -0.53493600 -1.27854900
F -0.52577100 0.71787800 0.86348100
F 2.72387000 -1.85872100 -1.26132700
S 1.73078100 0.05956100 0.01977200
O 0.13398400 0.13874600 -0.24574500
O 1.96547200 -0.60168900 1.24656500
O 1.94088500 1.60062300 0.05087600
F 2.12203700 1.33653400 -2.64287600
F 3.64175800 -0.07800000 -3.23768300
F 1.57219000 -0.59075300 -3.44022700
H 2.87553900 1.80776500 0.20318600
12
energy = -1199.6672891800001
C 2.56468200 0.03183100 -2.68905600
C 2.47591200 -0.55426100 -1.31384100
F -0.40659800 0.65004400 -1.26280000
F 2.72315100 -1.87541000 -1.28996200
S 1.65822400 0.01857600 -0.06091400
O -0.03623800 0.07642900 -0.03743700
O 1.82542300 -0.63737700 1.18125500
O 1.89615800 1.55049000 -0.11868000
F 2.20105300 1.31008900 -2.73365600
F 3.81494700 -0.06113600 -3.14275600
F 1.79286200 -0.64265000 -3.54730000
H 1.07219100 2.04764500 0.00572900
12
energy = -1199.6672629900002
C 2.54453100 0.10513500 -2.60114900
C 2.47141200 -0.58506100 -1.27426700
F -0.33610800 0.75949600 -1.00904100
F 2.64579200 -1.91492900 -1.36424000
S 1.73486900 -0.07247100 0.05271700
O 0.04849500 0.07279400 0.15203100
O 1.91159300 -0.83413300 1.23166600
O 2.05618600 1.44435600 0.10486400
F 2.24592800 1.39904000 -2.53112500
F 3.77248600 -0.01155000 -3.10738700
F 1.71074600 -0.45971600 -3.48029400
H 1.26728000 1.97266400 0.30506600
12
energy = -1199.6681446500002
C 2.54609400 0.08454300 -2.62898900
C 2.51427500 -0.52842000 -1.26571700
F -0.38062400 0.54895600 -1.22889700
F 2.73715400 -1.85793600 -1.28688700
S 1.65731300 0.00003700 -0.00054600
O -0.00021500 0.00205700 -0.00142700
O 1.86848200 -0.67359800 1.22417400
O 1.78044700 1.54812400 0.00099300
F 2.41428700 1.41677600 -2.57921400
F 3.71427700 -0.18993300 -3.20783900
F 1.59468200 -0.38198900 -3.44008000
H 2.66622300 1.82528400 -0.27777600
