%mem=28GB
%nprocshared=8
#P M062X/Def2TZVPP ! ASE formatted method and basis
Symm(None)
scf(xqc)
pop(None)
opt(NoFreeze,TS,CalcAll,NoEigentest,MaxCycle=999)

Gaussian input prepared by ASE

0 1
C                -0.4604244857       -2.2125174707       -1.1201271053
C                 0.4851292420       -1.7375657725       -0.0026200952
F                 0.0000000000        0.0000000000        0.0000000000
F                 0.0271567491       -2.1603041819        1.1242779639
S                 1.7590793108        0.0000000000        0.0000000000
O                 2.2035198162       -0.3763470114        1.2950398676
O                 2.2732473961       -0.3173880869       -1.2743647289
O                 1.8217474682        1.5811154647        0.0000000000
F                -0.2326811195       -1.5630370739       -2.2444309878
F                -0.2054542736       -3.5070657526       -1.3005608836
F                -1.7403305504       -2.0737528272       -0.7935666844
H                 1.7157786005        1.9061739888        0.9041250202


