%mem=28GB
%nprocshared=8
#P M062X/Def2TZVPP ! ASE formatted method and basis
Symm(None)
scf(xqc)
pop(None)
opt(NoFreeze,TS,CalcAll,NoEigentest,MaxCycle=999)

Gaussian input prepared by ASE

0 1
C                -0.8163379114        0.7568527444       -1.0578069768
C                 0.0000000000        0.0000000000        0.0000000000
F                -0.3377672338        0.4475024586        1.2136714053
F                -0.3107436159       -1.2999492329       -0.0798115373
S                 2.0322461754        0.0000000000        0.0000000000
O                 1.9092934434       -0.4822596823        1.4371078014
O                 3.4729142036       -0.2877734848        0.5637792385
O                 2.0473173490        1.5963487514        0.0000000000
F                -0.6681085480        2.0652244165       -0.9150018719
F                -0.4290967052        0.4089366770       -2.2781625824
F                -2.1082795330        0.4656145126       -0.9271835626
H                 1.2825665152        1.9165715476        0.4986015732


