%mem=28GB
%nprocshared=8
#P M062X/Def2TZVPP ! ASE formatted method and basis
Symm(None)
scf(xqc)
pop(None)
opt(NoFreeze,TS,CalcAll,NoEigentest,MaxCycle=999)

Gaussian input prepared by ASE

0 1
C                -0.1651917959       -0.8502582437        1.2934476710
C                 0.0000000000        0.0000000000        0.0000000000
F                -0.6323905760       -0.5298493540       -1.0229825382
F                -0.5519953836        1.1818002228        0.2682070677
S                 1.8523257270        0.0000000000        0.0000000000
O                 2.0121393787       -0.2460587518        1.4287764781
O                 2.7102236561       -0.2926055285       -1.0996296456
O                 1.9367780107        1.6208074499        0.0000000000
F                 1.2373360045       -1.8173544408       -0.0783741836
F                -0.2867554073       -0.2541934548        2.3956838890
F                -0.6365224274       -2.0061501108        1.3344564392
H                 1.0352860580        1.9576579499       -0.0549575583


