%mem=28GB
%nprocshared=8
#P M062X/Def2TZVPP ! ASE formatted method and basis
Symm(None)
scf(xqc)
pop(None)
opt(NoFreeze,TS,CalcAll,NoEigentest,MaxCycle=999)

Gaussian input prepared by ASE

0 1
C                -0.1416046648       -0.8276498744        1.3107929251
C                 0.0000000000        0.0000000000        0.0000000000
F                -0.6175992936       -0.5757015215       -1.0071198156
F                -0.6206476464        1.1719823540        0.1205801081
S                 1.8523257271        0.0000000000        0.0000000000
O                 2.0395249118       -0.2333633831        1.4275803074
O                 2.5903598755       -0.1781859361       -1.2059633405
O                 1.8687414066        1.6229231358        0.0000000000
F                 1.2716412239       -1.8301243102       -0.0241361178
F                 0.0137706044       -0.3635729869        2.4707441281
F                -0.6177754869       -1.9811649990        1.3616308824
H                 1.0501091903        2.1185483171        0.1156430249


