12
energy = -1199.71052151
C -0.04411900 -0.85304500 -1.27904800
C 0.04097100 0.01501100 0.00668900
F -0.45158700 1.22337000 -0.29117400
F -0.62571700 -0.46431800 1.02453700
S 1.88306200 -0.00332800 0.02680900
O 2.70445700 -0.36107600 1.11714300
O 1.98161700 -0.32401400 -1.41374700
O 2.11589900 1.58273900 0.00492600
F -0.62462100 -1.97022700 -1.35875600
F 1.15133800 -1.86493400 0.06679900
F -0.19519600 -0.22468900 -2.38568300
H 1.90446600 1.94304100 -0.86477800
12
energy = -1199.7105017200001
C -0.09358300 -0.85468900 -1.26019800
C -0.06882000 -0.09787000 0.09649600
F -0.68411800 1.07645700 -0.08798100
F -0.66531500 -0.72882000 1.07453000
S 1.76610600 0.06659300 0.09594800
O 2.63944900 -0.29947100 1.14242200
O 1.86926900 -0.11463200 -1.36828000
O 1.83932700 1.66405900 0.21306100
F -0.56033200 -2.01374600 -1.43190000
F 1.22452700 -1.85397400 -0.02101200
F -0.32676300 -0.15124000 -2.30529400
H 1.57301000 2.07585700 -0.61784300
12
energy = -1199.71311402
C -0.16450400 -0.84904800 -1.29436600
C 0.00003900 0.00032400 -0.00026800
F -0.55132300 1.18255400 -0.26785200
F -0.63275500 -0.52982500 1.02227000
S 1.85226800 -0.00006200 -0.00011800
O 2.71007500 -0.29421100 1.09920800
O 2.01181600 -0.24537800 -1.42910100
O 1.93756300 1.62058000 0.00080900
F -0.63684300 -2.00455100 -1.33663000
F 1.23646300 -1.81788800 0.07663300
F -0.28583800 -0.25187700 -2.39617500
H 2.45749100 1.88296200 0.76894000
12
energy = -1199.7130896200003
C -0.17950800 -1.05795100 -1.18447100
C 0.02141400 -0.00798500 -0.05290600
F -0.58850300 1.09940100 -0.47117400
F -0.53509300 -0.38587300 1.07604600
S 1.86971300 0.04582300 -0.16120200
O 2.79488800 -0.04253200 0.91907600
O 1.96270400 -0.42076500 -1.54002000
O 1.89303800 1.64749800 -0.42231600
F -0.60881100 -2.21870700 -1.01573100
F 1.32884600 -1.75304900 0.23878000
F -0.38134100 -0.64864200 -2.35783600
H 2.44248100 2.04446000 0.26303500
12
energy = -1199.7104512700002
C -0.04707200 -0.98238700 -1.17315000
C -0.05844700 -0.11319200 0.11455900
F -0.69897700 1.02597600 -0.17512200
F -0.65139000 -0.67330500 1.13674800
S 1.77178200 0.09694900 0.11788800
O 2.64235300 -0.15903200 1.19871000
O 1.89510600 -0.20582000 -1.32469500
O 1.80626500 1.69957300 0.09990700
F -0.48566000 -2.16262800 -1.25166100
F 1.27627600 -1.84120600 0.15795000
F -0.28581000 -0.37515500 -2.27627800
H 1.53551000 2.03339400 -0.76392700
12
energy = -1199.71310235
C -0.12049400 -0.99715400 -1.20972100
C -0.01604500 -0.04765300 0.01935400
F -0.61601400 1.08460100 -0.34318700
F -0.64116900 -0.52913700 1.07023400
S 1.83405100 0.03795800 0.04445200
O 2.68470400 -0.13279600 1.17484800
O 2.02952100 -0.30607300 -1.35939700
O 1.84578100 1.65637300 -0.07599600
F -0.53918900 -2.17326500 -1.17233200
F 1.29939500 -1.79590500 0.24976800
F -0.24926600 -0.48920700 -2.35445600
H 2.34169300 1.99918100 0.67616200
12
energy = -1199.71037296
C -0.03845800 -1.13532900 -0.95155200
C 0.02825700 -0.01736000 0.12530000
F -0.52278300 1.08233700 -0.40274100
F -0.59961200 -0.30247900 1.23649100
S 1.86939200 0.04401600 0.10235800
O 2.72392600 -0.04639100 1.22177700
O 1.95912700 -0.56342000 -1.24326600
O 2.02976700 1.59949600 -0.25137400
F -0.56884600 -2.26775300 -0.78511600
F 1.22311800 -1.79676800 0.54350500
F -0.23540500 -0.75618200 -2.15968800
H 1.78386100 1.76385400 -1.16977900
12
energy = -1199.71044121
C -0.09241000 -1.13196800 -0.92124400
C -0.05599700 -0.10689100 0.24569700
F -0.70214000 0.99136700 -0.16391400
F -0.61525600 -0.52847600 1.35012200
S 1.77415900 0.08633500 0.16091900
O 2.67926600 -0.03770600 1.23654900
O 1.84699900 -0.39791500 -1.23483100
O 1.81505300 1.67338000 -0.06224800
F -0.53852500 -2.30888400 -0.83487600
F 1.27250000 -1.82673500 0.46321200
F -0.36580900 -0.66690900 -2.08378000
H 1.52315300 1.89666500 -0.95435800
12
energy = -1199.71308815
C -0.16460900 -1.16468200 -0.95741100
C 0.00042500 -0.03832200 0.10433000
F -0.58270000 1.04031800 -0.41512100
F -0.60357500 -0.33217400 1.23390400
S 1.85197300 -0.00328300 0.06676100
O 2.73249400 -0.02005800 1.18720800
O 1.99569900 -0.56730700 -1.27067700
O 1.89999500 1.57542900 -0.30637900
F -0.61051700 -2.30791000 -0.72437800
F 1.27988200 -1.76591000 0.57063600
F -0.31616600 -0.83849300 -2.16393100
H 2.42331100 2.01767900 0.37166900
