12
energy = 0
C -0.10149198 0.47273431 -0.00845245
C 1.85309993 -0.14960487 0.41333276
F 2.02807791 -0.43940148 1.70219131
F 2.08762433 -1.27699653 -0.25109897
S 2.57725641 1.45304822 -0.21367094
O 3.13443655 2.42223160 0.65816401
O 2.49423000 1.74559304 -1.59998198
O 0.84143686 1.83232391 0.13115211
F -0.42039709 -0.11548071 1.12449968
F -1.21483548 1.26819342 -0.27841179
F 0.00986500 -0.24908621 -1.11083166
H 0.40688457 2.62858331 -0.22025308
12
energy = 0
C -0.12890726 0.47412636 0.03833502
C 1.85004961 -0.15535893 0.30873523
F 2.00660974 -0.57382848 1.56417456
F 2.09172657 -1.21163558 -0.46156021
S 2.60760574 1.48256826 -0.17015559
O 2.78060356 2.49791698 0.80401126
O 2.97930753 1.72534701 -1.51820248
O 0.82931584 1.77926845 -0.32976917
F -0.29130865 0.15708198 1.30497884
F -1.25858203 1.25047839 -0.21911293
F -0.19593197 -0.46299227 -0.89224626
H 0.42569832 2.62916584 -0.08254926
12
energy = 0
C -0.10692233 0.52107428 0.15846021
C 1.85673905 -0.20467312 0.21289358
F 2.03533405 -0.84064894 1.37021563
F 2.09588124 -1.10134861 -0.73908712
S 2.57356038 1.50480328 -0.01046889
O 2.42269936 2.45153639 1.03394467
O 3.19205067 1.91252502 -1.22107490
O 0.86507197 1.63818516 -0.59279106
F -0.06865514 0.45703051 1.47212375
F -1.22113715 1.32559709 -0.07910118
F -0.37360414 -0.56882703 -0.54129769
H 0.42516904 2.49688399 -0.71717799
