%mem=28GB
%nprocshared=8
#P am1 
Symm(None)
scf(xqc)
pop(None)
force

Gaussian input prepared by ASE

0 1
C                -0.4514821184       -0.7013601664        0.6902240457
C                 0.0134143153       -0.1207021527       -0.6772341309
F                -0.6116462450       -0.5222476759       -1.7613060571
F                -0.3730910382        1.1535020626       -0.6946390466
S                 1.7359674387       -0.3830980776       -0.0486884164
O                 1.6469176201       -1.5373262875        0.8386192565
O                 2.7503915009        0.0527413521       -0.9496767756
O                 1.6194383894        0.8537938635        0.9956622360
F                 0.6707356057       -1.7586748261       -0.8612164387
F                -0.3969072134       -0.1162284622        1.8036144076
F                -1.0714988665       -1.7794939769        0.8047972391
H                 1.9156916114        1.7386833472        0.7540406804


