%mem=28GB
%nprocshared=8
#P M062X/Def2TZVPP ! ASE formatted method and basis
Symm(None)
scf(xqc)
pop(None)
opt(NoFreeze,TS,CalcAll,NoEigentest,MaxCycle=999)

Gaussian input prepared by ASE

0 1
C                -0.8163379114        0.5376613420        1.1843571920
C                 0.0000000000        0.0000000000        0.0000000000
F                -0.3377672338       -1.2748214982       -0.2192872052
F                -0.3107436159        0.7190934353       -1.0858832906
S                 2.0322461754        0.0000000000        0.0000000000
O                 1.9092934434       -0.4822596823        1.4371078014
O                 3.4729142036       -0.2877734848        0.5637792385
O                 2.0473173490        1.5963487514        0.0000000000
F                -0.6681085480       -0.2401973427        2.2460377451
F                -0.4290967052        1.7684783318        1.4932308420
F                -2.1082795330        0.5701572628        0.8668257776
H                 2.8659073589        1.9016231820        0.4155814284


