%mem=28GB
%nprocshared=8
#P M062X/Def2TZVPP ! ASE formatted method and basis
Symm(None)
scf(xqc)
pop(None)
opt(NoFreeze,TS,CalcAll,NoEigentest,MaxCycle=999)

Gaussian input prepared by ASE

0 1
C                -0.1745274708       -1.0056211037       -1.1752976468
C                 0.0000000000        0.0000000000        0.0000000000
F                -0.5907538345        1.1594221967       -0.2830085078
F                -0.6234546502       -0.4197536294        1.0779957343
S                 1.8521475844        0.0000000000        0.0000000000
O                 2.5746529453       -0.1742149802        1.2158296796
O                 1.9330065508       -0.2271880937       -1.4385457403
O                 1.9031374777        1.6221120023        0.0000000000
F                -0.6866035757       -2.1357170467       -1.0309481263
F                 1.4568806901       -1.8800278024       -0.0116701170
F                -0.0387633414       -0.7332659811       -2.3970423568
H                 2.2472453229        2.1011773620        0.7624161653


