12
energy = -1199.7418671800003
C -0.43377800 -2.14131200 -1.13320600
C 0.49476400 -1.73419800 0.02462500
F 0.14467800 0.03542600 0.00194200
F -0.04163700 -2.11609800 1.13000400
S 1.89529700 -0.10213100 0.08824200
O 2.30596400 -0.48013100 1.38522300
O 2.44507300 -0.41454200 -1.18168000
O 1.95157400 1.47763900 0.16649500
F -0.11441100 -1.50628500 -2.24531800
F -0.26149600 -3.44936700 -1.31057400
F -1.71352200 -1.91417400 -0.86170400
H 1.93690700 1.84226800 -0.72853000
12
energy = -1199.7419065600002
C -0.47263600 -2.23276700 -1.11517100
C 0.47772600 -1.75563500 -0.00272200
F -0.04954700 -0.03181000 0.03862700
F 0.04834900 -2.21058900 1.12182500
S 1.70843300 0.01031600 0.02230200
O 2.23206600 -0.34959600 1.28309700
O 2.20995500 -0.21844300 -1.28480700
O 1.60781800 1.58548400 0.13863500
F -0.27928800 -1.55295600 -2.22988200
F -0.18725900 -3.51532100 -1.32892000
F -1.75059300 -2.13377500 -0.76857900
H 1.49955500 1.96421200 -0.74404000
12
energy = -1199.74171482
C -0.46480600 -2.20153700 -1.11641400
C 0.48883900 -1.74063200 0.00006100
F 0.03397700 0.00508000 -0.00114900
F 0.02367800 -2.15278500 1.12793300
S 1.79257200 -0.02521100 -0.00259000
O 2.26108000 -0.37030000 1.29272900
O 2.32382200 -0.31323900 -1.27683700
O 1.75679100 1.55670800 -0.00606300
F -0.22521100 -1.55916900 -2.24234800
F -0.23262100 -3.50089500 -1.29325300
F -1.74213400 -2.03934700 -0.79062800
H 1.63348000 1.87647000 0.89775200
