12
energy = -1199.7104917500003
C -0.09299100 -0.85610100 1.25896800
C -0.06877300 -0.09819500 -0.09710200
F -0.66492600 -0.72847900 -1.07574600
F -0.68435600 1.07587000 0.08818200
S 1.76601200 0.06704000 -0.09607600
O 1.86851400 -0.11549400 1.36809100
O 2.63987900 -0.29827500 -1.14234000
O 1.83903900 1.66449200 -0.21198400
F 1.22473800 -1.85412800 0.01958500
F -0.32698400 -0.15339700 2.30452900
F -0.55991700 -2.01529200 1.42988000
H 1.57099900 2.07575600 0.61864000
12
energy = -1199.71052433
C -0.04415800 -0.85435400 1.27793200
C 0.04085400 0.01470300 -0.00713400
F -0.62541300 -0.46413300 -1.02548900
F -0.45226800 1.22263500 0.29152900
S 1.88295700 -0.00285500 -0.02685800
O 1.98132600 -0.32459200 1.41347300
O 2.70474700 -0.35945000 -1.11727200
O 2.11513300 1.58329000 -0.00373100
F 1.15199600 -1.86474000 -0.06841800
F -0.19574000 -0.22688900 2.38500500
F -0.62421700 -1.97183400 1.35667900
H 1.90331900 1.94285600 0.86618500
12
energy = -1199.7131119300002
C -0.16519200 -0.85025800 1.29344800
C 0.00000000 0.00000000 0.00000000
F -0.63239100 -0.52984900 -1.02298300
F -0.55199500 1.18180000 0.26820700
S 1.85232600 0.00000000 0.00000000
O 2.01213900 -0.24605900 1.42877600
O 2.71022400 -0.29260600 -1.09963000
O 1.93677800 1.62080700 0.00000000
F 1.23733600 -1.81735400 -0.07837400
F -0.28675500 -0.25419300 2.39568400
F -0.63652200 -2.00615000 1.33445600
H 2.45764900 1.88354600 -0.76735800
12
energy = -1199.71056346
C -0.03789700 -0.86873600 1.28070200
C -0.06851200 -0.09125800 -0.06415800
F -0.68418300 -0.71753100 -1.03325400
F -0.69734600 1.06939400 0.15730600
S 1.76256400 0.10484200 -0.11720600
O 1.91331800 -0.09678600 1.34030300
O 2.60951600 -0.23109500 -1.19494400
O 1.80598700 1.70478300 -0.21164800
F 1.25660600 -1.82656300 -0.01315800
F -0.25095800 -0.18496400 2.34322500
F -0.48004000 -2.03803400 1.44902400
H 1.55978900 2.09964000 0.63356100
12
energy = -1199.7103888699999
C 0.02387400 -0.84859400 1.29916900
C 0.03715900 0.00507500 0.00114600
F -0.65232100 -0.50566800 -0.98578100
F -0.47835300 1.20290200 0.30270900
S 1.87696800 0.03795300 -0.08656500
O 2.03698200 -0.26157500 1.35310600
O 2.66779000 -0.31060800 -1.20222000
O 2.06552000 1.63002300 -0.09171700
F 1.19737900 -1.84373200 -0.07767700
F -0.10453000 -0.21054800 2.40316000
F -0.52160600 -1.98034200 1.41337400
H 1.87547000 1.99529700 0.78084500
12
energy = -1199.7130575899998
C -0.10853700 -0.87476100 1.31814200
C -0.02333800 -0.01352000 0.02422100
F -0.66977600 -0.56418100 -0.97880100
F -0.61208200 1.14423000 0.31793900
S 1.82632300 0.06063300 -0.04102500
O 2.04672400 -0.18461800 1.37981500
O 2.65499700 -0.19267800 -1.17248100
O 1.84623800 1.68355700 -0.03470600
F 1.28235400 -1.77977200 -0.10751100
F -0.21440200 -0.28821500 2.42706600
F -0.53155900 -2.04874700 1.36976300
H 2.32710000 1.97028100 -0.81939600
12
energy = -1199.71036371
C -0.08159400 -1.07148100 1.03602700
C -0.06906400 -0.11622400 -0.18921600
F -0.63587000 -0.60726900 -1.26055000
F -0.72232700 0.99766900 0.16317800
S 1.75971400 0.10034600 -0.13706500
O 1.85348700 -0.30117500 1.28332000
O 2.65412500 -0.07703700 -1.21414300
O 1.78568500 1.69800600 -0.00726400
F 1.27507600 -1.83267100 -0.32145100
F -0.34684900 -0.54173200 2.17246700
F -0.51603600 -2.25581500 1.02411100
H 1.49996000 1.97011300 0.87321700
12
energy = -1199.7131090600003
C -0.21240200 -1.15790300 1.04261800
C -0.00158600 -0.01649900 0.00534400
F -0.53221100 -0.30529000 -1.16173000
F -0.63117100 1.04721000 0.50069700
S 1.84345900 0.04507900 0.15488000
O 1.91439400 -0.53302500 1.49223100
O 2.79020100 0.05351400 -0.91012300
O 1.84527500 1.61970000 0.54725400
F 1.32865900 -1.72030100 -0.40193600
F -0.44183900 -0.84824900 2.24132400
F -0.62666800 -2.30447400 0.77067000
H 2.40408400 2.07678900 -0.09150700
12
energy = -1199.71307668
C -0.15119200 -1.09448000 1.07412500
C -0.02029100 -0.04628300 -0.06929600
F -0.62977900 -0.43384400 -1.16711800
F -0.61958800 1.05620700 0.37630800
S 1.83032700 0.02723500 -0.05555200
O 1.99793800 -0.43426300 1.31795600
O 2.70044700 -0.05606000 -1.18091900
O 1.85048500 1.62975000 0.19946900
F 1.28772000 -1.77917000 -0.42201200
F -0.29747700 -0.68296500 2.25510900
F -0.57753900 -2.25990800 0.93130000
H 2.36151100 2.03006800 -0.51312700
