%mem=28GB
%nprocshared=8
#P M062X/Def2TZVPP ! ASE formatted method and basis
Symm(None)
scf(xqc)
pop(None)
opt(NoFreeze,TS,CalcAll,NoEigentest,MaxCycle=999)

Gaussian input prepared by ASE

0 1
C                -0.1387550000        0.4974640000        0.0085150000
C                 1.8016220000       -0.1902270000        0.3927760000
F                 2.1530060000       -0.3650170000        1.6662490000
F                 2.3525080000       -1.1588530000       -0.3323250000
S                 2.4865070000        1.4550330000       -0.1640770000
O                 3.1959370000        2.3034290000        0.7229380000
O                 2.5757020000        1.5639910000       -1.5763470000
O                 0.7608820000        1.8831520000        0.1746780000
F                -0.5127420000       -0.1007680000        1.1191590000
F                -1.2564060000        1.2898240000       -0.2526150000
F                -0.0979900000       -0.2193250000       -1.1019880000
H                 0.3759160000        2.6334350000       -0.3103240000


