12
energy = -1199.7169907500002
C -0.08018400 -1.57558200 0.32524100
C -0.03121200 0.79778300 -0.17475300
F -0.49258700 0.87156500 -1.34316600
F -0.74835100 1.37431700 0.67955000
S 1.41639100 -0.19188200 0.24462800
O 1.62465300 -0.28878800 1.65317600
O 2.01513400 -0.88826800 -0.85652100
O 2.15069200 1.31977400 -0.01184600
F -0.67513800 -1.79401000 -0.85661200
F 0.48674500 -2.69920200 0.71744200
F -1.05158800 -1.26810100 1.20151500
H 2.83338800 1.22198200 -0.68446100
