%mem=28GB
%nprocshared=8
#P M062X/Def2TZVPP ! ASE formatted method and basis
Symm(None)
scf(xqc)
pop(None)
freq
opt(CalcFC, Tight)

Gaussian input prepared by ASE

0 1
C                 0.5248791540       -2.1285664363       -1.8404622087
C                 1.3453298117        0.0000000000        0.0000000000
F                 0.0000000000        0.0000000000        0.0000000000
F                 1.7661500943       -0.6670329226        1.0561603273
S                 1.8744692527       -0.8723556680       -1.5669137743
O                 3.0727141352       -1.6022143736       -1.3389911429
O                 1.7450879388        0.1271491713       -2.5834401755
O                 1.8664911669        1.2301010413        0.0000000000
F                -0.5856294431       -1.5494588692       -2.2434098135
F                 0.9509494701       -2.9646894893       -2.7660625466
F                 0.3096922611       -2.7813631963       -0.7120608082
H                 2.8143198006        1.1853260470        0.1955075990


