12
energy = 0
C -0.17999806 0.52754443 0.40106148
C 1.65494080 -0.47380299 -0.60312318
F 2.01331565 -1.63526093 -0.04542690
F 1.37549868 -0.76855376 -1.88852598
S 2.49836917 1.08426807 -0.18762457
O 1.18993368 1.74422738 0.04277692
O 3.40570203 1.37047487 0.86971923
O 3.02811069 1.85045158 -1.46777585
F -0.84032749 1.54861395 0.90557707
F -0.75348404 0.10865089 -0.68867085
F 0.11547930 -0.32381152 1.33902042
H 3.25094961 2.79137703 -1.41960479
12
energy = 0
C -0.18863268 0.55617695 0.33946752
C 1.68957547 -0.50032815 -0.51739606
F 2.05600623 -1.62051316 0.11455034
F 1.41280415 -0.87996666 -1.78092228
S 2.54686229 1.06736590 -0.17244589
O 1.30447252 1.67667613 0.36219725
O 3.65754577 1.34557582 0.67142886
O 2.77700374 1.89428668 -1.50274191
F -0.84120755 1.56858309 0.87081839
F -0.62697764 0.32092883 -0.86235882
F -0.10256597 -0.41952520 1.19531717
H 3.07360367 2.81491877 -1.46051156
12
energy = 0
C -0.16841702 0.59569462 0.28325560
C 1.70633848 -0.53987062 -0.47428481
F 2.09807117 -1.63190864 0.19087734
F 1.41486430 -0.96971169 -1.71827265
S 2.55869149 1.04005847 -0.17609979
O 1.41895221 1.50711773 0.65063149
O 3.80593697 1.32576507 0.44510357
O 2.49192614 1.99688487 -1.43565376
F -0.78675578 1.66437705 0.74012423
F -0.51801507 0.39222502 -0.95297085
F -0.24316834 -0.38935134 1.12941013
H 2.98006545 2.83289847 -1.42471750
