%mem=28GB
%nprocshared=8
#P M062X/Def2TZVPP ! ASE formatted method and basis
Symm(None)
scf(xqc)
pop(None)
opt(NoFreeze,TS,CalcAll,NoEigentest,MaxCycle=999)

Gaussian input prepared by ASE

0 1
C                 1.6870480000       -0.6441650000       -1.2617360000
C                 1.9669250000        0.2012830000        0.0066150000
F                -0.5659130000       -0.0854090000        0.2873540000
F                 2.0212180000       -0.4645830000        1.0619570000
S                 2.1984120000        2.0190860000        0.0257080000
O                 2.8866380000        2.2864440000        1.2364400000
O                 2.8111280000        2.3077030000       -1.2217220000
O                 0.7456830000        2.1378200000        0.0657280000
F                 0.9449910000        0.0063740000       -2.1178810000
F                 2.9005710000       -0.8493280000       -1.7685570000
F                 1.1483200000       -1.8023220000       -0.9564050000
H                -0.5426400000        0.8467220000        0.2645930000


