%mem=28GB
%nprocshared=8
#P am1 
Symm(None)
scf(xqc)
pop(None)
force

Gaussian input prepared by ASE

0 1
C                -0.6937707492       -1.2398263607        0.1474965654
C                -0.0461876206        0.1529239420        0.4003619183
F                -0.6663326092        1.0822266589       -0.3243175918
F                -0.2450352435        0.5387591994        1.6407466934
S                 1.6809695020       -0.2423299802       -0.1392242982
O                 2.9662664436       -0.1944701340        0.4742313827
O                 1.0848441757       -1.0050390048       -1.2303136567
O                 1.7677291374        1.2525781106       -0.7649797482
F                -1.1313511021       -1.9610832190        1.0686303970
F                 1.2188577825       -1.5935218463        1.1459254778
F                -1.0112742539       -1.7232785679       -0.9708660021
H                 2.5232215375        1.8126612019       -0.5534841377


