%mem=28GB
%nprocshared=8
#P M062X/Def2TZVPP ! ASE formatted method and basis
Symm(None)
scf(xqc)
pop(None)
freq
opt(CalcFC, Tight)

Gaussian input prepared by ASE

0 1
C                 3.5343827014       -1.5940305896       -1.1217617494
C                 1.3453298117        0.0000000000        0.0000000000
F                 0.0000000000        0.0000000000        0.0000000000
F                 1.7661500943       -0.6670329226        1.0561603273
S                 1.8744692527       -0.8723556680       -1.5669137743
O                 2.1045246568        0.0761033514       -2.6003223354
O                 0.9511813182       -1.9593154364       -1.6899309448
O                 1.8664911669        1.2301010413        0.0000000000
F                 3.4018013147       -2.6155745728       -0.3033292495
F                 4.1001933369       -1.9937910701       -2.2431107328
F                 4.2736890590       -0.6560236389       -0.5566884803
H                 2.8143198006        1.1853260470        0.1955075990


