12
energy = -1199.71678224
C -0.21984000 0.50933800 0.45066000
C 1.63835700 -0.41532400 -0.58383900
F 2.55362600 -1.36386200 -0.35800600
F 1.36869200 -0.43012100 -1.90455400
S 2.31496600 1.22674300 -0.18708700
O 0.99578700 1.86576200 0.04107100
O 3.26034500 1.23328300 0.87562600
O 2.84299800 2.06563000 -1.42155100
F -1.01928200 1.47645200 0.84907800
F -0.84794300 -0.09869900 -0.51248700
F 0.06953400 -0.19485700 1.50529400
H 3.80125000 1.94983400 -1.49680200
12
energy = -1199.71678114
C -0.22526600 0.50887100 0.43757600
C 1.64648600 -0.41775500 -0.57066400
F 2.56395500 -1.35969500 -0.32690500
F 1.38885100 -0.44728100 -1.89353800
S 2.31210600 1.23131900 -0.18460300
O 0.98809900 1.86645900 0.02582200
O 3.24825400 1.25291400 0.88607400
O 2.84684300 2.06036200 -1.42285900
F -1.03268400 1.47634200 0.81870900
F -0.84166600 -0.11183300 -0.52493900
F 0.05738200 -0.18326900 1.50194800
H 3.80612900 1.94774500 -1.48922000
12
energy = -1199.7167800200002
C -0.22580400 0.50649400 0.43567900
C 1.65094900 -0.41863500 -0.56452300
F 2.57142500 -1.35586400 -0.31404600
F 1.39574900 -0.45628300 -1.88766000
S 2.30989000 1.23492600 -0.18621800
O 0.98321600 1.86631200 0.01864900
O 3.24417900 1.26569500 0.88586200
O 2.84362300 2.05928200 -1.42804300
F -1.03736900 1.47299300 0.81045300
F -0.83836800 -0.12145400 -0.52457700
F 0.05759300 -0.17903100 1.50412600
H 3.80340800 1.94974400 -1.49229800
12
energy = -1199.71653721
C -0.18965900 0.60088300 0.35531500
C 1.64206800 -0.42259200 -0.58212400
F 2.15297600 -1.37360900 0.21605300
F 2.02430100 -0.72219900 -1.83688200
S 2.44690500 1.16432100 -0.07615700
O 1.29124300 1.64254300 0.72477200
O 3.73500900 1.26242200 0.52780500
O 2.35687000 2.06827700 -1.36498900
F -0.86424400 1.46271600 1.09434200
F -0.66642900 0.71088200 -0.85235800
F -0.33088400 -0.55010500 0.95018200
H 3.16033500 1.98064100 -1.89855600
