%mem=28GB
%nprocshared=8
#P am1 
Symm(None)
scf(xqc)
pop(None)
force

Gaussian input prepared by ASE

0 1
C                -0.1799980642        0.5275444251        0.4010614813
C                 1.6549407956       -0.4738029864       -0.6031231773
F                 2.0133156510       -1.6352609274       -0.0454268994
F                 1.3754986796       -0.7685537596       -1.8885259781
S                 2.4983691702        1.0842680666       -0.1876245709
O                 1.1899336761        1.7442273834        0.0427769210
O                 3.4057020251        1.3704748652        0.8697192260
O                 3.0281106902        1.8504515799       -1.4677758529
F                -0.8403274888        1.5486139493        0.9055770716
F                -0.7534840377        0.1086508927       -0.6886708540
F                 0.1154792954       -0.3238115188        1.3390204200
H                 3.2509496074        2.7913770301       -1.4196047873


