12
energy = -1199.8700420500002
C 1.89612300 0.48443900 -2.83030400
C 1.29798700 0.03140100 -0.04037700
F -0.02843800 0.15609700 -0.13300000
F 1.54756400 -0.76616500 1.00377000
S 1.94613600 -0.86036300 -1.53847500
O 0.97147000 -1.82419900 -1.91607800
O 3.31274000 -1.17035700 -1.30036500
O 1.92539200 1.21207900 0.03773200
F 2.90261800 1.31907800 -2.68628000
F 1.97877700 -0.10922300 -4.00556900
F 0.75234300 1.14336300 -2.74470200
H 1.60503700 1.71507000 0.79865200
12
energy = -1199.8729201100002
C 1.68211100 0.44188200 -2.88924300
C 1.41517000 0.15549600 -0.00082800
F 0.33816400 0.87031600 -0.30145200
F 1.06576800 -0.78808600 0.87927300
S 1.97151200 -0.78875400 -1.52027200
O 1.11439900 -1.89627800 -1.76154600
O 3.39153400 -0.90573000 -1.37322600
O 2.38286700 0.95867700 0.44643300
F 2.17044500 1.61852700 -2.53797000
F 2.31875900 -0.00511100 -3.95387300
F 0.39748600 0.55098800 -3.15079200
H 3.24494100 0.53233300 0.33082600
12
energy = -1199.8684298500002
C 1.97070900 0.42280000 -2.85958000
C 1.35282400 0.03761300 -0.07722100
F 0.02285200 0.12347300 -0.14182900
F 1.69577800 -0.69868100 0.96741100
S 1.94990000 -0.92802000 -1.57169100
O 0.93452200 -1.84164500 -1.96934400
O 3.30186300 -1.30103600 -1.33738200
O 1.93833700 1.24621300 0.00590300
F 3.05729500 1.15989300 -2.76600900
F 1.91370200 -0.13831500 -4.04734600
F 0.90150800 1.20319200 -2.68848300
H 1.38026100 1.91363200 -0.41129600
12
energy = -1199.8692279400002
C 3.52248700 -1.53201700 -1.10181300
C 1.32324000 0.00450100 -0.03909400
F -0.00842500 0.11009800 -0.07846500
F 1.62844000 -0.76631500 1.01800000
S 1.82705500 -0.91621500 -1.57706200
O 2.00870200 0.02289100 -2.62797100
O 0.98276000 -2.05616800 -1.67241800
O 1.93896000 1.18806700 -0.01179400
F 3.43502600 -2.54105700 -0.26029100
F 4.11121100 -1.93114900 -2.21254000
F 4.22185100 -0.55452500 -0.55245900
H 1.65582200 1.69225500 0.76319200
12
energy = -1199.8729035900003
C 3.53904700 -1.68166300 -1.08051000
C 1.45137500 -0.03530000 0.11321000
F 0.12145000 0.08834100 0.05662400
F 1.75653200 -0.84739300 1.11739100
S 1.92542600 -0.85151800 -1.50473000
O 2.24642800 0.23728600 -2.37833300
O 0.99923700 -1.87673900 -1.83709900
O 2.08153800 1.13151500 0.26559200
F 3.33040100 -2.75258100 -0.34559100
F 4.10976600 -2.02463300 -2.21861000
F 4.31591400 -0.83424200 -0.42873300
H 2.15541700 1.58033400 -0.58960100
12
energy = -1199.8729133900001
C 3.51819100 -1.57493000 -1.11740600
C 1.34068200 0.00883900 -0.00331000
F 0.00401100 0.01492100 -0.01637800
F 1.74836700 -0.67546200 1.05825900
S 1.83167700 -0.91590000 -1.55696000
O 2.03840000 0.10796400 -2.53707800
O 0.98184600 -2.03639700 -1.76084100
O 1.87156200 1.23337000 0.01464500
F 3.41788700 -2.58180000 -0.27671500
F 4.07985500 -1.98277500 -2.23849800
F 4.24420500 -0.61091100 -0.57896400
H 1.88224500 1.60134400 -0.88133900
12
energy = -1199.8697433
C 0.56331700 -2.14764400 -1.80533000
C 1.24840500 0.03320600 -0.05536700
F -0.08893800 0.13958600 -0.11422900
F 1.53341400 -0.74017400 0.99625400
S 1.83259400 -0.79434500 -1.61568500
O 3.07059100 -1.43141300 -1.32797700
O 1.63969100 0.11215000 -2.69307500
O 1.86928900 1.21480300 -0.00983700
F -0.57744700 -1.66300000 -2.24908700
F 1.04712400 -3.01062500 -2.67745000
F 0.37005900 -2.74858300 -0.64337000
H 1.79095200 1.59989200 0.87315300
12
energy = -1199.8733933
C 0.69529600 -2.23195100 -1.70294500
C 1.18778400 0.18527200 -0.12033200
F 0.14336500 0.93946300 -0.39948800
F 0.80993400 -0.76558800 0.75318300
S 1.76773500 -0.70811700 -1.65693300
O 3.09814900 -1.12737100 -1.33582900
O 1.44763100 0.05302800 -2.81392700
O 2.18890600 0.94343800 0.33550100
F -0.56536000 -1.87594200 -1.53030600
F 0.84605300 -2.78051200 -2.89194100
F 1.05173900 -3.08926500 -0.77077600
H 3.01322200 0.43444000 0.33411900
12
energy = -1199.87332255
C 0.52468500 -2.12824500 -1.84067400
C 1.34592700 -0.00032700 0.00007900
F 0.00058700 -0.00100900 0.00105200
F 1.76797500 -0.66724800 1.05583800
S 1.87463200 -0.87243400 -1.56722400
O 3.07256400 -1.60260900 -1.33892500
O 1.74547400 0.12716500 -2.58376800
O 1.86644100 1.23004800 -0.00005700
F -0.58505400 -1.54921100 -2.24573300
F 0.95133200 -2.96577900 -2.76477700
F 0.30789400 -2.77941700 -0.71162000
H 1.73839300 1.64081700 -0.86806100
