%mem=28GB
%nprocshared=8
#P am1 
Symm(None)
scf(xqc)
pop(None)
force

Gaussian input prepared by ASE

0 1
C                -0.7016294546       -1.0884643169        0.5346348511
C                -0.0784595078        0.0765038611       -0.2886164170
F                -0.4757530657        0.0272257355       -1.5403675700
F                -0.5407069651        1.2470113292        0.1467285705
S                 1.7029832612       -0.2668754275        0.0850986145
O                 1.3245636738       -0.6459864334        1.4417713822
O                 2.7782178435       -0.4503594396       -0.8319599551
O                 1.9567825682        1.3223755239        0.2948992426
F                 1.0157921956       -1.9613517609       -0.5011184360
F                -0.8351584416       -1.1218269578        1.7860550721
F                -1.3139031366       -2.0400741729        0.0059762534
H                 2.6152020291        1.7814110594       -0.2389046083


