%mem=28GB
%nprocshared=8
#P M062X/Def2TZVPP ! ASE formatted method and basis
Symm(None)
scf(xqc)
pop(None)
opt(NoFreeze,TS,CalcAll,NoEigentest,MaxCycle=999)

Gaussian input prepared by ASE

0 1
C                -0.8163379114       -1.2945140864       -0.1265502152
C                 0.0000000000        0.0000000000        0.0000000000
F                -0.3377672338        0.8273190396       -0.9943842001
F                -0.3107436159        0.5808557976        1.1656948280
S                 2.0322461754        0.0000000000        0.0000000000
O                 1.9092934434       -0.4822596823        1.4371078014
O                 3.4729142036       -0.2877734848        0.5637792385
O                 2.0473173490        1.5963487514        0.0000000000
F                -0.6681085480       -1.8250270738       -1.3310358732
F                -0.4290967052       -2.1774150088        0.7849317404
F                -2.1082795330       -1.0357717754        0.0603577850
H                 2.8659073589        1.9016231820        0.4155814284


