12
energy = -1199.8875434700003
C -0.61777700 -1.33162200 0.19588300
C 0.07361500 0.04795100 0.10319200
F -0.21418300 0.58873300 -1.08729300
F -0.39662700 0.83312800 1.06819800
S 1.90903300 -0.03078000 0.25387300
O 2.22301400 -0.23002600 1.61495200
O 2.37444400 -0.86679500 -0.79417200
O 2.23558700 1.46788500 -0.08910100
F -0.30144900 -2.07940500 -0.84616000
F -0.25326400 -1.94888800 1.30794800
F -1.93033800 -1.14811400 0.21167200
H 2.34588600 1.57752500 -1.04479600
12
energy = -1199.8874902399998
C -0.65098200 -1.40597300 0.23919900
C -0.07406200 0.02460100 0.13848300
F -0.47686700 0.56539300 -1.01804600
F -0.54143500 0.75085500 1.15010500
S 1.76767900 0.08804200 0.17420700
O 2.18180800 -0.13298400 1.50482000
O 2.23012000 -0.66992500 -0.93282800
O 1.95305400 1.61939000 -0.12805300
F -0.33400600 -2.10999900 -0.83284700
F -0.18150800 -2.01090300 1.31796900
F -1.97105300 -1.32531100 0.32678700
H 1.99828500 1.76978700 -1.08348800
12
energy = -1199.8875046
C -0.64682400 -1.36320700 0.30824100
C 0.00490500 0.00977900 0.02563300
F -0.39795200 0.44206200 -1.16596000
F -0.39506800 0.87249400 0.96810900
S 1.84781400 -0.02385500 0.04404200
O 2.24092800 -0.46922900 1.33283800
O 2.28184200 -0.62036300 -1.15869000
O 2.10930500 1.52134800 -0.07681300
F -0.18112500 -2.26980600 -0.53528300
F -0.39941400 -1.74759300 1.54769800
F -1.95752200 -1.25176800 0.14556400
H 2.13532500 1.92733300 0.80182600
12
energy = -1199.88730844
C -0.65751300 0.87311300 1.10057900
C 0.08633100 0.09496400 -0.00928300
F -0.33750100 -1.16589800 -0.00342100
F -0.19850800 0.65381200 -1.19128900
S 1.92235800 0.06107100 0.16499700
O 2.22297100 -0.07259700 1.53835300
O 2.38569700 -0.83237500 -0.83463500
O 2.27391700 1.53311400 -0.25450100
F -0.56437200 0.23999500 2.25385100
F -0.15303200 2.09234100 1.22153300
F -1.93707800 0.96998500 0.76461600
H 2.40467000 1.58677200 -1.21239000
12
energy = -1199.8873803099998
C -0.74918400 0.81724600 1.18385900
C -0.03508300 0.08398600 0.02499500
F -0.37569800 -1.20142900 0.05954000
F -0.43588900 0.61863500 -1.13435300
S 1.80697400 0.16846700 0.07206500
O 2.21007400 0.05927600 1.42103900
O 2.25627700 -0.69712100 -0.95804200
O 2.03331000 1.65854100 -0.36962900
F -0.53540500 0.19642400 2.32769500
F -0.31746300 2.06701700 1.26968700
F -2.05250400 0.82986300 0.93777400
H 2.09562500 1.71677100 -1.33410500
12
energy = -1199.8872274500002
C -0.67356400 0.83760800 1.12866600
C 0.00602600 0.03790600 -0.00814300
F -0.39144500 -1.23006400 0.06945700
F -0.36761700 0.55322100 -1.17789600
S 1.85023900 0.04290500 0.07526300
O 2.20543600 -0.08430300 1.44392700
O 2.28850300 -0.83995600 -0.93470700
O 2.16241300 1.50160100 -0.41333400
F -0.55170200 0.21544200 2.28312600
F -0.11435200 2.04709900 1.22516700
F -1.95746900 0.98996900 0.85048100
H 2.18574600 2.11047200 0.33941400
12
energy = -1199.8872845500002
C -0.55238100 0.42506500 -1.33638700
C 0.03502200 -0.01003700 0.02710500
F -0.38435700 0.83725200 0.96501900
F -0.40144900 -1.23645900 0.30478200
S 1.88006900 -0.06130200 0.06167500
O 2.23171300 -0.60889000 1.31385900
O 2.30449200 -0.59815100 -1.18218500
O 2.21585800 1.47123400 0.11253500
F 0.05313700 1.54124600 -1.75185500
F -0.38826600 -0.51512300 -2.24399500
F -1.84360300 0.67496500 -1.19797700
H 2.29770600 1.82710300 -0.78448000
12
energy = -1199.88723905
C -0.70124200 0.36454900 -1.31810800
C -0.05357900 -0.05034000 0.02436400
F -0.53008600 0.73245200 0.99064800
F -0.37437300 -1.31735900 0.27619500
S 1.78899900 0.06330700 0.02918000
O 2.21034200 -0.48113900 1.26104500
O 2.23775900 -0.40219600 -1.23477000
O 1.98668700 1.61809100 0.11480500
F -0.20351500 1.53962000 -1.71408700
F -0.47155900 -0.53500500 -2.25228500
F -2.00671000 0.49627600 -1.15300600
H 2.01831000 2.00202700 -0.77377100
12
energy = -1199.8873503500001
C -0.64853300 0.38612000 -1.34906400
C 0.00023000 -0.00119200 -0.00005800
F -0.40551300 0.86383600 0.93682800
F -0.39834900 -1.22698500 0.32856900
S 1.84471100 -0.00113000 0.00096200
O 2.22703900 -0.54148300 1.25553600
O 2.27700300 -0.51634800 -1.24076400
O 2.12717900 1.54379800 -0.00409300
F -0.15588700 1.53813200 -1.78016600
F -0.43574000 -0.55106800 -2.25239000
F -1.95558500 0.52013500 -1.16710900
H 2.16566100 1.88069100 0.90285600
