%mem=28GB
%nprocshared=8
#P M062X/Def2TZVPP ! ASE formatted method and basis
Symm(None)
scf(xqc)
pop(None)
opt(NoFreeze,TS,CalcAll,NoEigentest,MaxCycle=999)

Gaussian input prepared by ASE

0 1
C                 1.8844480000       -0.9900920000       -1.1972800000
C                 2.2285640000        0.0066260000       -0.1161860000
F                -0.2835590000        0.4598910000        0.0703110000
F                 2.4756200000       -0.5370510000        1.0586030000
S                 1.9345010000        1.6563670000       -0.0833590000
O                 0.5214910000        1.9785300000        0.2630280000
O                 2.8565050000        2.3263470000        0.7511520000
O                 2.0215270000        2.0980360000       -1.5689960000
F                 1.2780140000       -0.4256230000       -2.2290690000
F                 3.0175250000       -1.5514740000       -1.6443740000
F                 1.1293110000       -1.9686320000       -0.7221720000
H                 2.9461350000        2.2163020000       -1.8356770000


