%mem=28GB
%nprocshared=8
#P M062X/Def2TZVPP ! ASE formatted method and basis
Symm(None)
scf(xqc)
pop(None)
opt(NoFreeze,TS,CalcAll,NoEigentest,MaxCycle=999)

Gaussian input prepared by ASE

0 1
C                 1.8011152880       -0.6552226531       -1.2772905174
C                 1.9720391950        0.1808961223        0.0163547690
F                -0.5669966320        0.0996624712        0.3670300988
F                 1.8911523092       -0.4476535591        1.0926700607
S                 2.1595605697        2.0038545478        0.0204576663
O                 2.9349992065        2.2096675530        1.1897921912
O                 2.7414047190        2.2476736338       -1.2510815245
O                 0.7089239756        2.0871459988        0.1422645512
F                 1.0115224732       -0.0871425652       -2.1494499319
F                 2.9813530745       -0.8336702902       -1.8661815631
F                 1.3249071168       -1.8580161476       -1.0508040868
H                -0.7576002955        1.0124298883        0.3883322865


