%mem=28GB
%nprocshared=8
#P M062X/Def2TZVPP ! ASE formatted method and basis
Symm(None)
scf(xqc)
pop(None)
opt(NoFreeze,TS,CalcAll,NoEigentest,MaxCycle=999)

Gaussian input prepared by ASE

0 1
C                -0.1684170187        0.5956946172        0.2832556000
C                 1.7063384823       -0.5398706245       -0.4742848143
F                 2.0980711691       -1.6319086430        0.1908773405
F                 1.4148643000       -0.9697116885       -1.7182726501
S                 2.5586914927        1.0400584746       -0.1760997903
O                 1.4189522132        1.5071177325        0.6506314924
O                 3.8059369655        1.3257650671        0.4451035737
O                 2.4919261406        1.9968848672       -1.4356537595
F                -0.7867557832        1.6643770466        0.7401242267
F                -0.5180150692        0.3922250222       -0.9529708540
F                -0.2431683425       -0.3893513367        1.1294101333
H                 2.9800654504        2.8328984655       -1.4247174984


