12
energy = -1199.78973236
C 1.68704800 -0.64416500 -1.26173600
C 1.96692500 0.20128300 0.00661500
F -0.56591300 -0.08540900 0.28735400
F 2.02121800 -0.46458300 1.06195700
S 2.19841200 2.01908600 0.02570800
O 2.88663800 2.28644400 1.23644000
O 2.81112800 2.30770300 -1.22172200
O 0.74568300 2.13782000 0.06572800
F 0.94499100 0.00637400 -2.11788100
F 2.90057100 -0.84932800 -1.76855700
F 1.14832000 -1.80232200 -0.95640500
H -0.54264000 0.84672200 0.26459300
12
energy = -1199.78973332
C 1.68708300 -0.64328300 -1.26286600
C 1.96731500 0.20118900 0.00605600
F -0.56522900 -0.08706800 0.28811400
F 2.02262700 -0.46558500 1.06077200
S 2.19786700 2.01909300 0.02663800
O 2.88681700 2.28571000 1.23712000
O 2.80953900 2.30916800 -1.22096700
O 0.74510400 2.13703700 0.06780300
F 0.94415100 0.00762800 -2.11796900
F 2.90039300 -0.84737200 -1.77062800
F 1.14914300 -1.80198700 -0.95821900
H -0.54242900 0.84509400 0.26623900
