%mem=28GB
%nprocshared=8
#P M062X/Def2TZVPP ! ASE formatted method and basis
Symm(None)
scf(xqc)
pop(None)
opt(NoFreeze,TS,CalcAll,NoEigentest,MaxCycle=999)

Gaussian input prepared by ASE

0 1
C                -0.1641535838       -0.8488765168       -1.2944189665
C                 0.0000000000        0.0000000000        0.0000000000
F                -0.5519737406        1.1821014886       -0.2670295843
F                -0.6322254292       -0.5306642106        1.0225703475
S                 1.8521475844        0.0000000000        0.0000000000
O                 2.7092397565       -0.2936938387        1.0998834496
O                 2.0119891630       -0.2461289462       -1.4287888790
O                 1.9375792014        1.6206630605        0.0000000000
F                -0.6371689435       -2.0041159293       -1.3374762000
F                 1.2360429713       -1.8180745530        0.0767897935
F                -0.2850478977       -0.2509768115       -2.3958588658
H                 2.3641406998        1.8882957514       -0.8219551445


