%mem=28GB
%nprocshared=8
#P M062X/Def2TZVPP ! ASE formatted method and basis
Symm(None)
scf(xqc)
pop(None)
freq
opt(CalcFC, Tight)

Gaussian input prepared by ASE

0 1
C                -0.7876147763        0.9505838042        0.9238438997
C                 0.0000000000        0.0000000000        0.0000000000
F                -0.3335903840       -1.2620923952        0.3169772091
F                -0.3715793164        0.2346365434       -1.2686698779
S                 1.9025159146        0.0000000000        0.0000000000
O                 2.0696243234       -0.5448392059        1.4505519501
O                 3.4064802275       -0.1129463352        0.9423916141
O                 1.9321182117        1.5960154404        0.0000000000
F                -0.2844418440        0.9166183655        2.1509840704
F                -0.7513866230        2.1940017237        0.4731720142
F                -2.0579893151        0.5634564197        0.9771145857
H                 1.5797650430        1.9073470736       -0.8450398228


