12
energy = -1199.79032033
C 0.21386100 -0.18995800 1.53608100
C -0.11489700 -0.06944900 0.00514000
F -0.72578000 -1.10167500 -0.51675100
F -0.75465300 1.02436200 -0.32509800
S 1.81102900 -0.02669500 -0.12170600
O 1.60519400 -0.14015100 1.49218600
O 3.16276000 -0.07493300 -0.59403500
O 1.62910100 1.60040400 -0.21599500
F 1.61187900 -1.66753900 -0.29041700
F -0.26934600 0.82067200 2.23877600
F -0.20604100 -1.32395400 2.06631400
H 2.50441900 1.99785700 -0.30208600
12
energy = -1199.78170064
C 0.22424300 -0.25018600 1.54324500
C 0.04354900 0.03022700 0.00420700
F -0.63023800 -0.84881400 -0.68291800
F -0.44142100 1.23725900 -0.23479700
S 1.94350600 -0.06077100 0.02642200
O 1.61247900 -0.20718100 1.63875200
O 3.20950500 -0.24778100 -0.59538800
O 2.09513600 1.56797300 0.10330400
F 1.57813700 -1.69896700 -0.09382200
F -0.30542000 0.72263200 2.28029600
F -0.27453400 -1.40182900 1.93690200
H 1.41900300 2.00583300 0.63392600
12
energy = -1199.79031457
C 0.23111700 -0.20742100 1.53707600
C 0.02195700 0.04022900 0.00024100
F -0.64088900 -0.89444900 -0.63051900
F -0.49266400 1.20819600 -0.29264200
S 1.94783700 -0.08952300 -0.00046400
O 1.62121000 -0.28168700 1.58586700
O 3.31882000 -0.23580400 -0.38994200
O 1.91996400 1.55019400 0.00470500
F 1.61444800 -1.69164700 -0.28996800
F -0.21084400 0.79594800 2.27633500
F -0.32149000 -1.33003300 1.95872900
H 2.83131400 1.86796000 0.00126900
