%mem=28GB
%nprocshared=8
#P M062X/Def2TZVPP ! ASE formatted method and basis
Symm(None)
scf(xqc)
pop(None)
freq
opt(CalcFC, Tight)

Gaussian input prepared by ASE

0 1
C                 0.2248021497       -0.2250250640        1.5380089358
C                 0.0000000000        0.0000000000        0.0000000000
F                -0.5979323289       -0.9809550107       -0.6254648652
F                -0.5924109668        1.1287600188       -0.2994450966
S                 1.9305557030        0.0000000000        0.0000000000
O                 1.6167315471       -0.2094357486        1.5867770764
O                 3.2798039597       -0.2861000074       -0.3875603891
O                 2.0697596399        1.6341366223        0.0000000000
F                 1.4359386979       -1.5601439790       -0.2858421501
F                -0.2808410649        0.7519342640        2.2718444739
F                -0.2543918449       -1.3785423871        1.9660896888
H                 1.6419301990        1.9737675996        0.7957209527


