12
energy = -1199.7244503000002
C -0.76507800 0.25439100 -1.32159500
C -0.02405600 0.12656400 0.01543600
F -0.32390500 1.21312600 0.76659100
F -0.48244200 -0.96260900 0.64208300
S 1.89597800 -0.07419200 -0.17110300
O 2.03391500 -0.53908500 1.31761300
O 3.37509500 -0.24112900 0.72777400
O 2.06312000 1.49355600 -0.36392500
F -0.39516900 1.36610200 -1.94885800
F -0.46763400 -0.78791900 -2.09083700
F -2.07642200 0.28907700 -1.13655000
H 1.47049800 2.00376700 0.20929300
12
energy = -1199.72448061
C -0.75084700 0.33333100 -1.23086300
C -0.03591200 0.06700400 0.09992500
F -0.40498500 1.03283200 0.97496500
F -0.45629400 -1.11341400 0.56809300
S 1.89551500 -0.02334100 -0.05371500
O 2.01961400 -0.67061500 1.36656500
O 3.35891600 -0.24048400 0.85991700
O 1.99299900 1.56202900 -0.03873000
F -0.42395100 1.53394800 -1.69746300
F -0.38231900 -0.58399500 -2.11938100
F -2.06621300 0.28055900 -1.08223200
H 1.36268400 1.96740500 0.57649500
12
energy = -1199.72830029
C -0.72222400 0.41516200 -1.20992200
C -0.05366200 0.05131400 0.12839400
F -0.41765000 0.93765100 1.05594800
F -0.49584800 -1.16745500 0.49014000
S 1.83985800 -0.16699000 0.03556100
O 1.99987500 -0.37765100 1.57292000
O 3.35001700 -0.13287200 0.98163600
O 1.94830100 1.38300500 -0.32964000
F -0.58070100 1.69980500 -1.48745700
F -0.15663100 -0.29990400 -2.18494700
F -2.01600600 0.12996000 -1.17396200
H 2.87728100 1.64609200 -0.27528300
12
energy = -1199.72513309
C -0.73593300 -1.21402600 0.36335000
C 0.00113400 0.02382900 -0.16439500
F -0.31376800 0.18061200 -1.45948200
F -0.44611400 1.10646600 0.51272100
S 1.93155100 -0.10163400 -0.10740600
O 1.97084600 -0.51512700 1.39782200
O 3.34623900 -0.18357100 0.90836600
O 2.02915700 1.46934000 -0.31673100
F -0.18809200 -2.30269600 -0.17329000
F -0.64325600 -1.29027100 1.68163700
F -2.01842200 -1.17541000 0.02938600
H 1.37056100 1.95479000 0.20448500
12
energy = -1199.7251485800002
C -0.73415800 -1.24130900 0.37117400
C -0.02518900 0.06917700 0.00473300
F -0.36467400 0.39401900 -1.25234000
F -0.47710400 1.04262300 0.82870700
S 1.90760100 -0.02982900 0.01389300
O 1.97978400 -0.64767600 1.44611200
O 3.34154100 -0.22922500 0.98555000
O 1.97862700 1.55632900 0.02405500
F -0.17768000 -2.23816900 -0.31427700
F -0.61947900 -1.49210600 1.66589600
F -2.02221600 -1.18120000 0.06279800
H 1.32215300 1.95327700 0.61781600
12
energy = -1199.72777056
C -0.73621200 -1.24072100 0.34617400
C -0.03127500 0.08609200 0.01987500
F -0.35270300 0.42339800 -1.24118300
F -0.47992200 1.02364900 0.85446100
S 1.87475700 -0.08613800 0.03798900
O 1.99367600 -0.50626000 1.53283600
O 3.35532300 -0.13598200 1.03847100
O 1.92576300 1.50237600 -0.09534600
F -0.19993600 -2.21407800 -0.38990300
F -0.58927600 -1.54526600 1.62667300
F -2.02919100 -1.16258900 0.07083600
H 2.84160400 1.78428900 0.03304600
12
energy = -1199.7239890500002
C -0.76505600 0.88055000 0.92073400
C -0.01630500 -0.09569300 -0.00005000
F -0.35747200 -1.34354700 0.36441400
F -0.43367100 0.11166800 -1.25923200
S 1.91155900 -0.08808600 -0.03408500
O 2.04425300 -0.08420200 1.52162600
O 3.38832600 0.08803900 0.88553900
O 1.99057100 1.36327800 -0.67162000
F -0.56465100 0.58276300 2.19083400
F -0.31406400 2.13184200 0.70583900
F -2.06426700 0.87062200 0.67498400
H 1.48467900 2.02554600 -0.17765500
12
energy = -1199.7239614700002
C -0.79742800 0.82005400 1.04676400
C -0.01524400 -0.03979100 0.04165800
F -0.36373300 -1.32203400 0.24301600
F -0.39159400 0.31676200 -1.19693800
S 1.91288200 -0.02898500 0.07361800
O 1.99304400 -0.21099700 1.62226800
O 3.35699000 0.03568100 1.05695000
O 2.00838400 1.48795400 -0.38354600
F -0.63676500 0.37443700 2.27857200
F -0.34478500 2.08814200 0.99577700
F -2.08797400 0.83913400 0.75964000
H 1.47543100 2.08603500 0.16120100
12
energy = -1199.7283478499999
C -0.77596200 0.95445700 0.92321900
C 0.00498000 -0.00098800 -0.00124300
F -0.34178400 -1.26057200 0.31178200
F -0.36137000 0.24052100 -1.27009700
S 1.90721300 -0.02072200 0.00311400
O 2.08534500 -0.55678400 1.45559600
O 3.41135700 -0.09049600 0.94935600
O 1.89417900 1.57553300 -0.00223000
F -0.28033800 0.90784300 2.15297400
F -0.72219100 2.19976500 0.47964000
F -2.05124400 0.58249900 0.96714100
H 2.80242400 1.88819400 0.10953900
