%mem=28GB
%chk=1302784824321400000001_well
%nprocshared=8
#P M062X/Def2TZVPP ! ASE formatted method and basis
Symm(None)
scf(xqc)
pop(None)
freq
opt(CalcFC)

Gaussian input prepared by ASE

0 1
C                 0.3289780000       -0.8315350000        0.0098770000
F                -0.1711100000       -1.5374000000        0.9907290000
F                 0.5251000000       -1.5814370000       -1.0435190000
S                 0.1657930000        0.8925960000       -0.0832010000
O                 1.4316430000       -0.0164630000        0.3696760000
O                 0.3603410000        1.5047500000       -1.3438380000
O                -0.4442180000        1.5563360000        1.0072580000


