%mem=28GB
%chk=1302503202100000000001_well
%nprocshared=8
#P M062X/Def2TZVPP ! ASE formatted method and basis
Symm(None)
scf(xqc)
pop(None)
freq
opt(CalcFC)

Gaussian input prepared by ASE

0 1
C                 0.0352280000       -0.9686430000       -0.0767620000
F                 0.0193730000       -1.7171910000        0.9315290000
F                -0.0325260000       -1.6114750000       -1.1503140000
S                 0.5136660000        0.9190100000        0.0285450000
O                 1.7646880000        0.7420550000        0.6827280000
O                 0.4840180000        1.2522390000       -1.3500990000
O                -0.5879200000        1.3708520000        0.8413540000


