%mem=28GB
%chk=1502984803620600000001_R_Addition_MultipleBond_5_8_9_IRC_R_prod
%nprocshared=8
#P mp2/6-31G ! ASE formatted method and basis
Symm(None)
scf(xqc)
pop(None)
guess(Mix,Always)
freq
opt(CalcFC)

Gaussian input prepared by ASE

0 1
C                -1.0622830000       -0.2203480000        0.0352800000
F                -1.5555970000        0.5019880000       -1.0235570000
F                -1.6070760000        0.1898320000        1.2272460000
F                -1.2618740000       -1.5731460000       -0.1577300000
S                 0.9230240000        0.0517130000        0.0581680000
O                 1.5058830000       -0.7171610000        1.3234440000
O                 1.4757720000       -0.1335520000       -1.4515960000
O                 1.1265550000        1.8394310000       -0.0120560000
H                 1.5728830000        1.9058130000       -0.9060370000


