%mem=28GB
%chk=1502984803620600000001_r12_insertion_R_9_8_5_IRC_R_prod
%nprocshared=8
#P M062X/Def2TZVPP ! ASE formatted method and basis
Symm(None)
scf(xqc)
pop(None)
freq
opt(CalcFC)

Gaussian input prepared by ASE

0 1
C                -0.9394490000       -0.2078410000        0.0281660000
F                -1.5030940000        0.5066100000       -0.9278050000
F                -1.4682210000        0.1096910000        1.1936260000
F                -1.1356040000       -1.4926300000       -0.2100420000
S                 0.8870600000        0.0858690000        0.0123810000
O                 1.4015380000       -0.6381650000        1.1135040000
O                 1.3274970000       -0.1085550000       -1.3258260000
O                 0.9983830000        1.6494030000        0.1460590000
H                 1.3053230000        1.9516190000       -0.7237230000


