%mem=28GB
%chk=1502984803620600000001_r12_insertion_R_6_5_8_IRC_R_prod
%nprocshared=8
#P M062X/Def2TZVPP ! ASE formatted method and basis
Symm(None)
scf(xqc)
pop(None)
freq
opt(CalcFC)

Gaussian input prepared by ASE

0 1
C                -0.9582970000       -0.1266420000        0.0475350000
F                -1.5137960000        1.0406830000       -0.2363810000
F                -1.3370080000       -0.5095150000        1.2483780000
F                -1.3515780000       -1.0168690000       -0.8430760000
S                 0.9114100000        0.0049630000        0.0012040000
O                 1.3597600000       -0.0964610000        1.3360110000
O                 1.3561640000       -0.8421360000       -1.0472350000
O                 1.0985450000        1.5021780000       -0.4391600000
H                 1.1771500000        1.5619280000       -1.4018110000


