%mem=28GB
%chk=1502984803620600000001_r13_insertion_ROR_2_1_5_8_IRC_F_prod
%nprocshared=8
#P M062X/Def2TZVPP ! ASE formatted method and basis
Symm(None)
scf(xqc)
pop(None)
freq
opt(CalcFC)

Gaussian input prepared by ASE

0 1
C                 0.0051200000       -0.9625200000       -0.0818620000
F                -2.0698990000       -0.4847700000        0.0861310000
F                 0.0311600000       -1.7205320000        0.9207700000
F                -0.0662570000       -1.5971420000       -1.1614750000
S                 0.4998490000        0.9173600000        0.0252220000
O                 1.7288990000        0.7515560000        0.7209810000
O                 0.5100150000        1.2454050000       -1.3549990000
O                -0.6265680000        1.3837110000        0.8023040000
H                -1.8261410000        0.3841260000        0.4176290000


