%mem=28GB
%chk=1502984803620600000001_intra_H_migration_5_9_IRC_R_prod
%nprocshared=8
#P M062X/Def2TZVPP ! ASE formatted method and basis
Symm(None)
scf(xqc)
pop(None)
freq
opt(CalcFC)

Gaussian input prepared by ASE

0 1
C                -0.9446230000       -0.1828080000        0.0289850000
F                -1.4892520000        0.5427840000       -0.9295890000
F                -1.4645020000        0.1531840000        1.1933170000
F                -1.1749030000       -1.4628050000       -0.2041370000
S                 0.8890060000        0.0625570000        0.0120000000
O                 1.3842570000       -0.6709900000        1.1155610000
O                 1.3241340000       -0.1489010000       -1.3261800000
O                 1.0418910000        1.6224160000        0.1401910000
H                 1.3539540000        1.9110330000       -0.7313850000


