%mem=28GB
%chk=1502984803620600000001_r12_insertion_R_6_5_1
%nprocshared=8
#P M062X/Def2TZVPP ! ASE formatted method and basis
Symm(None)
scf(xqc)
pop(None)
opt(NoFreeze,TS,CalcAll,NoEigentest,MaxCycle=999)

Gaussian input prepared by ASE

0 1
C                 0.0379470000       -0.1241120000        0.1227890000
F                -0.8039250000        0.3210570000       -0.8330360000
F                -0.4265040000        0.4870240000        1.1943500000
F                -0.2909050000       -1.4012740000        0.2031410000
S                 1.7841050000        0.1534640000       -0.2146740000
O                 1.4934820000       -0.5956210000        1.2493310000
O                 2.2973550000       -0.2129110000       -1.3816390000
O                 2.0848660000        1.6199910000       -0.0257830000
H                 2.2940940000        2.2652180000       -0.7175980000

1 2 F
1 3 F
1 4 F
1 5 F
5 6 F
5 7 F
5 8 F
8 9 F


