%mem=28GB
%chk=1502984803620600000001_r12_insertion_R_9_8_5
%nprocshared=8
#P M062X/Def2TZVPP ! ASE formatted method and basis
Symm(None)
scf(xqc)
pop(None)
opt(NoFreeze,TS,CalcAll,NoEigentest,MaxCycle=999)

Gaussian input prepared by ASE

0 1
C                -0.1200200000       -0.0649430000        0.1369040000
F                -0.7518510000        0.6299530000       -0.7954670000
F                -0.7691970000        0.1840560000        1.2559560000
F                -0.3419860000       -1.3244670000       -0.1444300000
S                 1.7172150000        0.3765170000        0.2438320000
O                 2.2242670000       -0.5836520000        1.2670380000
O                 2.1922480000        0.1948790000       -1.1599780000
O                 1.8758340000        1.4537110000        0.1917980000
H                 2.4440050000        1.6467810000       -1.3987760000

1 2 F
1 3 F
1 4 F
1 5 F
5 6 F
5 7 F
5 8 F
8 9 F


