%mem=28GB
%chk=1502984803620600000001_r12_insertion_R_9_8_5_IRC_F_prod
%nprocshared=8
#P M062X/Def2TZVPP ! ASE formatted method and basis
Symm(None)
scf(xqc)
pop(None)
freq
opt(CalcFC)

Gaussian input prepared by ASE

0 1
C                -0.9374310000       -0.2178950000        0.0193770000
F                -1.5023660000        0.5030940000       -0.9308910000
F                -1.4626980000        0.1061390000        1.1876430000
F                -1.1389150000       -1.5000520000       -0.2136390000
S                 0.8678720000        0.1796980000        0.0943250000
O                 1.4126110000       -0.6922990000        1.0659580000
O                 1.3550450000       -0.0915350000       -1.3760460000
O                 0.9783990000        1.5965470000        0.1654000000
H                 1.5406490000        0.7881110000       -1.7395010000


