%mem=28GB
%chk=1502984803620600000001_r12_insertion_R_6_5_1_IRC_F_prod
%nprocshared=8
#P M062X/Def2TZVPP ! ASE formatted method and basis
Symm(None)
scf(xqc)
pop(None)
freq
opt(CalcFC)

Gaussian input prepared by ASE

0 1
C                -0.9415040000       -0.0518750000        0.0386250000
F                -1.4035550000        0.5184610000       -1.0699460000
F                -1.3546130000        0.6447580000        1.0797320000
F                -1.3928760000       -1.2867140000        0.1183910000
S                 0.8989880000       -0.0833900000       -0.0190640000
O                 1.3602420000       -0.5378900000        1.2347990000
O                 1.2561000000       -0.6913370000       -1.2487820000
O                 1.1635330000        1.4664330000       -0.0701680000
H                 0.9563330000        1.8246900000       -0.9459030000


