%mem=28GB
%chk=1502984803620600000001_r13_insertion_ROR_9_8_5_6_IRC_F_prod
%nprocshared=8
#P M062X/Def2TZVPP ! ASE formatted method and basis
Symm(None)
scf(xqc)
pop(None)
freq
opt(CalcFC)

Gaussian input prepared by ASE

0 1
C                 0.8567560000       -0.2630580000        0.6007520000
F                 1.0970060000       -1.4153940000        0.0101900000
F                 0.4133300000       -0.4770830000        1.8331040000
F                 1.9806090000        0.4356610000        0.6634650000
S                -0.3796550000        0.7832990000       -0.3478020000
O                -2.6580190000       -0.0615420000       -0.7441180000
O                 0.2093280000        0.9638630000       -1.6517130000
O                -1.3795630000       -0.5309600000       -0.3386730000
H                -3.1640140000       -0.1567160000        0.0733180000


