%mem=28GB
%chk=1502984803620600000001_r12_insertion_R_2_1_5_IRC_F_prod
%nprocshared=8
#P M062X/Def2TZVPP ! ASE formatted method and basis
Symm(None)
scf(xqc)
pop(None)
freq
opt(CalcFC)

Gaussian input prepared by ASE

0 1
C                -1.2053750000       -1.3959650000        0.4312150000
F                -0.4937990000        1.0018380000       -0.2593540000
F                -1.8531930000       -0.7290990000        1.3296730000
F                -1.9214400000       -1.2964840000       -0.6417820000
S                 0.9472400000        0.4129900000       -0.1417950000
O                 1.1609530000        0.1210260000        1.2136680000
O                 1.0754870000       -0.5141010000       -1.1970610000
O                 1.7298090000        1.7162010000       -0.4753630000
H                 1.8193810000        1.8184210000       -1.4335190000


