%mem=28GB
%chk=1502984803620600000001_r12_insertion_R_6_5_1_IRC_R_prod
%nprocshared=8
#P M062X/Def2TZVPP ! ASE formatted method and basis
Symm(None)
scf(xqc)
pop(None)
freq
opt(CalcFC)

Gaussian input prepared by ASE

0 1
C                -0.9419860000       -0.0529820000        0.0208380000
F                -1.4154540000        0.5078920000       -1.0750900000
F                -1.3430470000        0.6546250000        1.0726610000
F                -1.3927300000       -1.2863360000        0.1236260000
S                 0.8989580000       -0.0835380000       -0.0214300000
O                 1.3264710000       -0.5385040000        1.2511900000
O                 1.2907310000       -0.6889530000       -1.2344850000
O                 1.1606340000        1.4600480000       -0.1744670000
H                 0.9993990000        1.9231660000        0.6608320000


