%mem=28GB
%chk=1502984803620600000001_R_Addition_MultipleBond_5_8_9_IRC_F_prod
%nprocshared=8
#P mp2/6-31G ! ASE formatted method and basis
Symm(None)
scf(xqc)
pop(None)
guess(Mix,Always)
freq
opt(CalcFC)

Gaussian input prepared by ASE

0 1
C                -1.0592190000       -0.2361760000        0.0228800000
F                -1.5552080000        0.4999750000       -1.0251360000
F                -1.6026120000        0.1861710000        1.2201690000
F                -1.2639750000       -1.5816800000       -0.1602060000
S                 0.9039050000        0.1503970000        0.1354950000
O                 1.5124940000       -0.7512850000        1.2967030000
O                 1.5047300000       -0.1123930000       -1.5414800000
O                 1.1104790000        1.7518110000        0.0257490000
H                 1.7819570000        0.8266390000       -1.7516730000


