%mem=28GB
%chk=1502984803620600000001_r12_insertion_R_6_5_7_IRC_R_prod
%nprocshared=8
#P M062X/Def2TZVPP ! ASE formatted method and basis
Symm(None)
scf(xqc)
pop(None)
freq
opt(CalcFC)

Gaussian input prepared by ASE

0 1
C                -1.0408380000       -0.0938360000        0.1630560000
F                -1.8886820000        0.5033430000       -0.6703590000
F                -1.1353620000        0.4714130000        1.3538200000
F                -1.3877550000       -1.3761690000        0.2686360000
S                 0.6938510000       -0.0552710000       -0.5931760000
O                 1.3889350000       -0.7894800000        0.5921660000
O                 2.4481170000       -0.1908380000       -0.2776080000
O                 0.6953580000        1.5220120000       -0.3488260000
H                 1.5882010000        1.8524750000       -0.5167370000


