%mem=28GB
%chk=1502984803620600000001_intra_H_migration_6_9
%nprocshared=8
#P M062X/Def2TZVPP ! ASE formatted method and basis
Symm(None)
scf(xqc)
pop(None)
opt(NoFreeze,TS,CalcAll,NoEigentest,MaxCycle=999)

Gaussian input prepared by ASE

0 1
C                 1.9298170000        0.0528410000       -1.8137420000
F                 2.9883200000        0.7924050000       -1.7374580000
F                 0.9631220000        0.7130520000       -2.4255800000
F                 2.1776240000       -0.9894880000       -2.4744040000
S                 1.1609920000        0.6447960000        0.1117160000
O                 1.5105240000       -0.3461140000       -0.5377470000
O                 2.4087720000        0.9259760000        1.1450710000
O                 0.3183840000       -0.0617770000        0.8002900000
H                 0.7335990000       -0.9695470000        0.1329130000



