%mem=28GB
%chk=1502984803620600000001_r13_insertion_ROR_2_1_5_8_IRC_R_prod
%nprocshared=8
#P M062X/Def2TZVPP ! ASE formatted method and basis
Symm(None)
scf(xqc)
pop(None)
opt(CalcAll,Cartesian)

Gaussian input prepared by ASE

0 1
C                -0.3008210000       -1.0562560000       -0.1336080000
F                -1.5927900000       -1.0346360000       -0.4417700000
F                -0.1449100000       -1.6750460000        1.0203970000
F                 0.3644650000       -1.6950660000       -1.0761890000
S                 0.3258200000        0.6709180000       -0.0242830000
O                 1.6176520000        0.6149760000        0.5409330000
O                 0.0319120000        1.2860310000       -1.2683520000
O                -0.6482290000        1.2263300000        1.0787230000
H                -1.4555550000        1.5833520000        0.6806580000


