%mem=28GB
%chk=1502984803620600000001_r12_insertion_R_6_5_7
%nprocshared=8
#P M062X/Def2TZVPP ! ASE formatted method and basis
Symm(None)
scf(xqc)
pop(None)
opt(NoFreeze,TS,CalcAll,NoEigentest,MaxCycle=999)

Gaussian input prepared by ASE

0 1
C                -0.1073770000       -0.0676240000        0.0163250000
F                -1.0829210000        0.2945150000       -0.8534970000
F                -0.4755310000        0.5524040000        1.1580980000
F                -0.3389060000       -1.3417520000        0.2400370000
S                 1.4314690000        0.3415820000       -0.5657590000
O                 2.2883500000       -0.2060980000        0.7588880000
O                 2.6079000000       -0.9643720000       -0.9536880000
O                 1.8305940000        1.6674960000       -0.4090250000
H                 2.3169340000        2.2366860000        0.2054930000

1 2 F
1 3 F
1 4 F
1 5 F
5 6 F
5 7 F
5 8 F
8 9 F


