%mem=28GB
%chk=1502984803620600000001_r12_insertion_R_8_5_6
%nprocshared=8
#P M062X/Def2TZVPP ! ASE formatted method and basis
Symm(None)
scf(xqc)
pop(None)
opt(NoFreeze,TS,CalcAll,NoEigentest,MaxCycle=999,Cartesian)

Gaussian input prepared by ASE

0 1
C                -0.3282200000       -0.0906730000       -0.0039710000
F                -0.8696980000        0.7772510000       -0.8534480000
F                -0.6034560000        0.2931370000        1.2348190000
F                -0.8518260000       -1.2857550000       -0.2155810000
S                 1.5244090000       -0.1711710000       -0.2631450000
O                 4.9502720000        0.2478030000        2.3241140000
O                 1.6331510000       -0.5552190000       -1.6578620000
O                 1.7324460000        1.4168560000       -0.1212690000
H                 1.2834320000        1.8806080000       -0.8467760000

1 2 F
1 3 F
1 4 F
1 5 F
5 6 F
5 7 F
5 8 F
8 9 F


