%mem=28GB
%chk=1502984803620600000001_r12_insertion_R_1_5_8_IRC_F_prod
%nprocshared=8
#P M062X/Def2TZVPP ! ASE formatted method and basis
Symm(None)
scf(xqc)
pop(None)
freq
opt(CalcFC)

Gaussian input prepared by ASE

0 1
C                -0.9280930000       -0.1712710000        0.0632480000
F                -1.5158720000        0.3093660000       -1.0151220000
F                -1.3943900000        0.4424890000        1.1334460000
F                -1.1641960000       -1.4670480000        0.1567550000
S                 0.8970120000        0.0465910000       -0.0533250000
O                 1.4677790000       -0.3511770000        1.1819590000
O                 1.3294490000       -0.5084450000       -1.2842670000
O                 0.8369840000        1.6185710000       -0.1502890000
H                 1.7235830000        1.9981750000       -0.2379790000


