%mem=28GB
%chk=1502984803620600000001_r12_insertion_R_6_5_8_IRC_F_prod
%nprocshared=8
#P M062X/Def2TZVPP ! ASE formatted method and basis
Symm(None)
scf(xqc)
pop(None)
freq
opt(CalcFC)

Gaussian input prepared by ASE

0 1
C                -0.9583000000       -0.1268130000        0.0475160000
F                -1.5137240000        1.0381040000       -0.2466980000
F                -1.3379870000       -0.4995810000        1.2511650000
F                -1.3508070000       -1.0244280000       -0.8359000000
S                 0.9114960000        0.0047300000        0.0005650000
O                 1.3614650000       -0.1064040000        1.3340340000
O                 1.3545690000       -0.8349440000       -1.0544930000
O                 1.0987740000        1.5050400000       -0.4289180000
H                 1.1723950000        1.5725310000       -1.3914370000


