%mem=28GB
%chk=1502984803620600000001_r12_insertion_R_5_8_9
%nprocshared=8
#P M062X/Def2TZVPP ! ASE formatted method and basis
Symm(None)
scf(xqc)
pop(None)
opt(NoFreeze,TS,CalcAll,NoEigentest,MaxCycle=999)

Gaussian input prepared by ASE

0 1
C                 0.0119380000       -0.0487060000        0.0007940000
F                -0.5498080000        0.5174950000       -1.0718050000
F                -0.5192480000        0.5679090000        1.0400470000
F                -0.4724660000       -1.2862500000        0.0317720000
S                 1.7980420000       -0.0384660000       -0.0312630000
O                 2.2735150000       -0.5193570000        1.1214050000
O                 2.2434900000       -0.3751270000       -1.2471380000
O                 2.1455550000        2.1167960000        0.2409020000
H                 1.5394960000        1.5785340000       -0.4878420000

1 2 F
1 3 F
1 4 F
1 5 F
5 6 F
5 7 F
5 8 F
8 9 F


