%mem=28GB
%chk=1502984803620600000001_r12_insertion_R_5_1_3_IRC_F_prod
%nprocshared=8
#P M062X/Def2TZVPP ! ASE formatted method and basis
Symm(None)
scf(xqc)
pop(None)
freq
opt(CalcFC)

Gaussian input prepared by ASE

0 1
C                -0.9653930000       -0.1826950000        0.0097600000
F                -1.5350810000       -0.3499270000       -1.1706650000
F                -1.3204000000        0.9824390000        0.5301040000
F                -1.3764360000       -1.1810460000        0.7664830000
S                 0.9067920000        0.0170410000       -0.0657390000
O                 1.4117320000       -0.9391990000        0.8438350000
O                 1.1711140000        0.1586400000       -1.4553430000
O                 1.2765830000        1.4026950000        0.5909560000
H                 1.2512630000        2.1014070000       -0.0782330000


