%mem=28GB
%chk=1502984803620600000001_intra_H_migration_5_9
%nprocshared=8
#P M062X/Def2TZVPP ! ASE formatted method and basis
Symm(None)
scf(xqc)
pop(None)
opt(NoFreeze,TS,CalcAll,NoEigentest,MaxCycle=999)

Gaussian input prepared by ASE

0 1
C                 0.0090210000        0.0110870000        0.0234580000
F                -0.5770990000        0.7359690000       -0.9199380000
F                -0.5608830000        0.3813610000        1.1535750000
F                -0.3738790000       -1.2327380000       -0.1899260000
S                 1.8409730000        0.1831030000        0.0364160000
O                 2.2841530000       -0.4707090000        1.2059960000
O                 2.3245320000       -0.2316240000       -1.2314730000
O                 2.0437050000        1.7256860000        0.2651030000
H                 1.4799910000        1.4106990000       -0.7463360000



