%mem=28GB
%chk=1502984803620600000001_r13_insertion_ROR_9_8_5_6
%nprocshared=8
#P M062X/Def2TZVPP ! ASE formatted method and basis
Symm(None)
scf(xqc)
pop(None)
opt(NoFreeze,TS,CalcAll,NoEigentest,MaxCycle=999)

Gaussian input prepared by ASE

0 1
C                 3.1228270000        0.7470600000        1.1501340000
F                 4.0654090000       -0.1711160000        0.8853320000
F                 2.5411010000        0.3274080000        2.2589480000
F                 3.8031950000        1.8382190000        1.4975550000
S                 2.0105340000        1.0116160000       -0.1951170000
O                 0.4656410000        1.9580300000        0.6519990000
O                 2.6268820000        1.4337080000       -1.2719060000
O                 0.9643480000        0.0079600000       -0.1691970000
H                 0.0630450000        0.7464020000        0.4073060000

1 2 F
1 3 F
1 4 F
1 5 F
5 6 F
5 7 F
5 8 F
8 9 F


