%mem=28GB
%chk=1502984803620600000001_Intra_Diels_alder_R_6_7_IRC_R_prod
%nprocshared=8
#P M062X/Def2TZVPP ! ASE formatted method and basis
Symm(None)
scf(xqc)
pop(None)
freq
opt(CalcFC)

Gaussian input prepared by ASE

0 1
C                -0.9575650000       -0.1373990000        0.0299480000
F                -1.5204750000        1.0186320000       -0.2840350000
F                -1.3564500000       -0.5054750000        1.2288680000
F                -1.3222330000       -1.0462660000       -0.8539660000
S                 0.9110980000        0.0157250000        0.0194010000
O                 1.3868100000       -0.8393210000       -1.0088260000
O                 1.3336230000       -0.0633390000        1.3640970000
O                 1.0896980000        1.5093550000       -0.4363630000
H                 1.1863980000        1.5580080000       -1.3979980000


