%mem=28GB
%chk=1502984803620600000001_r12_insertion_R_2_1_3
%nprocshared=8
#P M062X/Def2TZVPP ! ASE formatted method and basis
Symm(None)
scf(xqc)
pop(None)
opt(NoFreeze,TS,CalcAll,NoEigentest,MaxCycle=999)

Gaussian input prepared by ASE

0 1
C                 0.2774600000       -0.4921440000       -0.1511960000
F                -0.5942070000        0.6481550000       -1.0049000000
F                -0.4349170000        1.3903740000        0.7368620000
F                -0.5258020000       -1.3003910000        0.1868830000
S                 1.9029210000       -0.1032950000       -0.0873340000
O                 2.3661590000       -0.5267440000        1.2098760000
O                 2.5020110000       -0.5903150000       -1.3130930000
O                 1.8596570000        1.4811930000       -0.1613640000
H                 1.1172270000        2.0060020000        0.1811460000

1 2 F
1 3 F
1 4 F
1 5 F
5 6 F
5 7 F
5 8 F
8 9 F


