%mem=28GB
%chk=1502984803620600000001_r13_insertion_ROR_9_8_5_6_IRC_R_prod
%nprocshared=8
#P M062X/Def2TZVPP ! ASE formatted method and basis
Symm(None)
scf(xqc)
pop(None)
freq
opt(CalcFC)

Gaussian input prepared by ASE

0 1
C                 0.7733770000       -0.6203990000        0.6819890000
F                 1.3593980000       -1.7196890000        0.2591330000
F                 0.5495550000       -0.6376560000        1.9904140000
F                 1.6205890000        0.3892820000        0.4697490000
S                -0.8676670000        0.9299670000       -0.5387910000
O                -2.3237480000        0.4166030000       -0.9699800000
O                -0.1002430000        1.0539960000       -1.7339330000
O                -0.4300580000       -0.5535670000        0.0525760000
H                -2.9219110000        0.4306610000       -0.2103900000


