%mem=28GB
%chk=1502984803620600000001_intra_H_migration_5_9_IRC_F_prod
%nprocshared=8
#P M062X/Def2TZVPP ! ASE formatted method and basis
Symm(None)
scf(xqc)
pop(None)
freq
opt(CalcFC)

Gaussian input prepared by ASE

0 1
C                -0.9428540000       -0.1928310000        0.0203260000
F                -1.4886280000        0.5392450000       -0.9326530000
F                -1.4591100000        0.1494870000        1.1873890000
F                -1.1783650000       -1.4700960000       -0.2076910000
S                 0.8723500000        0.1569650000        0.0935490000
O                 1.3938760000       -0.7254770000        1.0684520000
O                 1.3517530000       -0.1328310000       -1.3758520000
O                 1.0205730000        1.5706700000        0.1590860000
H                 1.5605150000        0.7401600000       -1.7427600000


