%mem=28GB
%chk=1502984803620600000001_Intra_Diels_alder_R_6_7_IRC_F_prod
%nprocshared=8
#P M062X/Def2TZVPP ! ASE formatted method and basis
Symm(None)
scf(xqc)
pop(None)
freq
opt(CalcFC)

Gaussian input prepared by ASE

0 1
C                -0.9575650000       -0.1375440000        0.0299150000
F                -1.5201570000        1.0159640000       -0.2941100000
F                -1.3575830000       -0.4956910000        1.2314040000
F                -1.3215240000       -1.0535340000       -0.8468240000
S                 0.9111930000        0.0154870000        0.0188080000
O                 1.3853570000       -0.8325540000       -1.0158860000
O                 1.3353650000       -0.0729280000        1.3623760000
O                 1.0896930000        1.5122090000       -0.4266010000
H                 1.1821320000        1.5680890000       -1.3882460000


