%mem=28GB
%chk=1502984803620600000001_r12_insertion_R_2_1_5_IRC_R_prod
%nprocshared=8
#P M062X/Def2TZVPP ! ASE formatted method and basis
Symm(None)
scf(xqc)
pop(None)
freq
opt(CalcFC)

Gaussian input prepared by ASE

0 1
C                -0.9618110000       -0.1816170000        0.0856100000
F                -1.3624990000        1.0297640000       -0.2698270000
F                -1.4060490000       -0.4906510000        1.2878380000
F                -1.4559840000       -1.0879550000       -0.7391870000
S                 0.9088250000        0.0155050000       -0.0256540000
O                 1.3690380000       -0.1207400000        1.3034290000
O                 1.2558380000       -0.7439580000       -1.1761810000
O                 1.2204830000        1.5190320000       -0.3864670000
H                 1.2282140000        1.6320930000       -1.3476350000


