%mem=28GB
%chk=1502984803620600000001_r12_insertion_R_5_1_3_IRC_R_prod
%nprocshared=8
#P M062X/Def2TZVPP ! ASE formatted method and basis
Symm(None)
scf(xqc)
pop(None)
opt(CalcAll,Cartesian)

Gaussian input prepared by ASE

0 1
C                -1.7545850000       -1.1778220000       -0.5954290000
F                -2.7224830000       -1.1800150000        0.2623600000
F                -0.0421620000        1.7798970000       -0.6149430000
F                -1.1689810000       -2.3187580000       -0.4315640000
S                 0.8600540000        0.7398880000        0.0840200000
O                 0.1033160000        0.1739860000        1.1260780000
O                 1.4791030000       -0.0125040000       -0.9355110000
O                 1.8935970000        1.7136490000        0.7302140000
H                 2.6183060000        1.8883430000        0.1132300000


