%mem=28GB
%chk=1502984803620600000001_well_mp2
%nprocshared=8
#P mp2/6-31G ! ASE formatted method and basis
Symm(None)
scf(xqc)
pop(None)
freq
opt(CalcFC)

Gaussian input prepared by ASE

0 1
C                -1.0680320000       -0.0750900000       -0.0472380000
F                -1.4486650000        0.3382500000       -1.2403510000
F                -1.3310260000        0.8688240000        0.8463280000
F                -1.7206820000       -1.1758530000        0.2717310000
S                 0.7372370000       -0.4307630000       -0.0405220000
O                 1.0832490000       -0.7639050000        1.2945000000
O                 1.0027020000       -1.2599110000       -1.1514660000
O                 1.2802770000        1.0068060000       -0.3751480000
H                 1.4649410000        1.4916400000        0.4421640000


