%chk=2003846667223680600001_r12_insertion_R_6_5_7_TS.chk
%mem=8GB
%nprocshared=4
# wb97xd/6-311++G(d,p) NoSymm pop=full density=current

2003846667223680600001 Transition State - IRC Forward Point 0

0 1
C      -1.157875      0.042166      0.900176
C      -0.580782     -0.030139     -0.608684
F      -1.051114     -1.136622     -1.157707
F      -1.029187      1.025780     -1.260920
S       1.482672     -0.145706     -0.538628
O       1.328341     -1.081687      0.549243
O       2.708679     -0.334610     -1.302881
O       1.507168      1.439071     -0.197131
F      -0.955823     -1.051212      1.602628
F      -0.672841      1.088854      1.549360
F      -2.484112      0.199309      0.794661
H       2.420501      1.741149     -0.099663

