%chk=2003846667223680600001_r12_insertion_R_5_2_1_TS.chk
%mem=8GB
%nprocshared=4
# wb97xd/6-311++G(d,p) NoSymm pop=full density=current

2003846667223680600001 Transition State - IRC Forward Point 0

0 1
C      -1.011600     -0.499458      0.785632
C      -0.477655      0.408440     -0.628908
F      -0.869095     -0.093628     -1.802184
F      -0.855511      1.688492     -0.655088
S       1.239160      0.144369     -0.236692
O       1.396295      0.836633      1.012500
O       1.382370     -1.280842     -0.349447
O       2.033121      0.886489     -1.398450
F      -0.231933     -1.100322      1.718614
F      -1.696883      0.394256      1.466769
F      -1.700827     -1.488955      0.257960
H       2.987254      0.797568     -1.273741

