%mem=28GB
%nprocshared=8
#P M062X/Def2TZVPP ! ASE formatted method and basis
Symm(None)
scf(xqc)
pop(None)
freq
opt(CalcFC)

Gaussian input prepared by ASE

0 2
C                 1.5404090000        0.0050260000       -0.0064710000
O                 2.2057890000       -0.9272050000       -0.3239760000
C                -0.0149410000        0.0030480000        0.0022910000
F                -0.4862360000        0.8004890000        0.9543880000
F                -0.4563150000        0.4389360000       -1.1718580000
F                -0.4532270000       -1.2221780000        0.2014320000
O                 2.0225250000        1.1799160000        0.3447050000


