8
energy = -526.5859524509999
C 1.92872900 1.05910000 -0.16481500
O -0.22470900 1.05515900 0.81401500
C 3.38982700 1.15501500 -0.62391300
F 4.20028000 0.93764100 0.38753200
F 3.64447900 0.27088000 -1.57378000
F 3.57065700 2.37517300 -1.09288700
O 0.98051500 0.74439900 -0.71072900
H -1.18261900 0.93022600 0.87323500
