8
energy = -526.5318095130001
C 1.47520600 -0.07134200 0.43429900
O 2.29507300 -0.45429800 -0.70691700
C -0.00527300 -0.05589300 0.08936100
F -0.63408600 0.77320700 0.92131100
F -0.27275100 0.35247300 -1.15603400
F -0.50693500 -1.27701800 0.23228900
O 2.03278400 1.09270000 -0.08160400
H 2.93560300 1.14444900 0.26620700
