%mem=28GB
%nprocshared=8
#P M062X/Def2TZVPP ! ASE formatted method and basis
Symm(None)
scf(xqc)
pop(None)
freq
opt(CalcFC)

Gaussian input prepared by ASE

0 1
C                 0.7101151659        1.9721197216       -1.0071856699
O                 0.9682246094        0.0000000000        0.0000000000
C                 1.0464344983        3.4700716194       -0.8562799179
F                -0.1000192366        4.1419470790       -0.8123246862
F                 1.7598090515        3.8165269654        0.2185013518
F                 1.7305824381        3.8474682933       -1.9313938308
O                 1.2075446969        1.4212913555        0.0000000000
H                 0.0000000000        0.0000000000        0.0000000000


