8
energy = -526.65484988
C 1.77099500 0.14713000 -0.07425000
O 1.23925000 -0.31023100 -1.12463600
C -0.00607600 0.00709400 -0.01342500
F -0.28645500 1.02235900 0.82501200
F -0.93012200 0.16832700 -0.96690600
F -0.20917100 -1.13966900 0.58378800
O 3.01570600 0.54270400 -0.20650900
H 3.34209600 0.86186300 0.64213600
8
energy = -526.654857561
C 1.80287900 -0.17294700 -0.06011600
O 1.22067500 -0.33015800 -1.16990700
C 0.02768900 -0.01701400 -0.00214900
F -0.09166100 0.85771700 1.01426600
F -0.83818700 0.47333100 -0.89595200
F -0.37812700 -1.20309000 0.37403100
O 3.09852900 0.02398900 -0.13346400
H 3.45811300 0.11975700 0.75541500
8
energy = -526.655207368
C 1.80413500 -0.00165100 0.00039700
O 1.26785200 -0.28286900 -1.11674700
C 0.00010700 -0.00023800 -0.00003600
F -0.21399100 0.95002600 0.91496800
F -0.87865700 0.31060400 -0.95710000
F -0.29452700 -1.18152000 0.47359500
O 3.06912200 0.29815800 -0.00012400
H 3.40699100 0.25019900 -0.91838700
