%mem=28GB
%nprocshared=8
#P M062X/Def2TZVPP ! ASE formatted method and basis
Symm(None)
scf(xqc)
pop(None)
freq
opt(CalcFC)

Gaussian input prepared by ASE

0 1
C                 0.7101151659        1.9721197216       -1.0071856699
O                 0.9682246094        0.0000000000        0.0000000000
C                -0.8010483329        1.6726651614       -0.9268428203
F                -1.1401574127        0.9953200084       -2.0195062807
F                -1.2148778408        0.9687282526        0.1301847595
F                -1.4493544515        2.8328090380       -0.9158001358
O                 1.2075446969        1.4212913555        0.0000000000
H                 0.0000000000        0.0000000000        0.0000000000


