8
energy = -526.613424285
C 0.59069300 1.99334800 -0.84079200
O 0.84575000 0.06464100 0.27511300
C 1.03636100 3.46708800 -0.84516600
F -0.05232600 4.22363100 -0.74561700
F 1.87513400 3.82655600 0.12416100
F 1.62872300 3.71118100 -2.01014100
O 1.15881300 1.44879500 0.13175200
H 0.23954300 -0.06581400 -0.47799300
8
energy = -526.613446378
C 0.60613100 1.98957600 0.85136900
O 0.83134900 0.06923100 -0.28519900
C 1.04809700 3.46443000 0.85235800
F 1.67432300 3.70240100 2.00074400
F 1.85662700 3.83268800 -0.13909900
F -0.04507300 4.21859700 0.79045800
O 1.14539100 1.45316200 -0.14190500
H 0.24815000 -0.06778400 0.48472700
8
energy = -526.610737406
C 2.43104800 1.68230900 -0.01096300
O 0.96821700 -0.00001100 -0.00015400
C 2.51588700 3.22262900 -0.00656400
F 3.17496500 3.59842900 -1.09815300
F 1.35585300 3.88445900 0.01308900
F 3.20732400 3.59104500 1.06729000
O 1.20756800 1.42126200 0.00229600
H 0.00003500 0.00000300 0.00839100
