8
energy = -526.692389719
C 1.77013400 -0.03528200 0.11263700
O 2.30511700 -0.89450900 -0.52622200
C 0.05130700 0.02980900 0.00630500
F 1.36619500 -0.36370100 1.50941600
F -0.69698900 0.94600600 0.45461300
F -0.60804000 -1.02622900 -0.19815300
O 2.15498400 1.26676200 0.16744900
H 2.94385200 1.32835100 -0.38270100
8
energy = -526.692397272
C 1.60922900 0.09839400 -0.03660900
O 2.16979400 -0.70891000 -0.71970100
C -0.10295200 -0.06248000 0.07791000
F 1.42940600 -0.22466000 1.40744200
F -0.90402900 0.76727800 0.59773200
F -0.63713800 -1.20168800 -0.01536300
O 1.82158400 1.44030900 -0.06057200
H 2.51986000 1.58175200 -0.70955000
8
energy = -526.689027829
C 1.76759400 -0.00010600 -0.00012000
O 2.24995000 -0.89021700 -0.60736700
C 0.00007600 0.00009100 -0.00001000
F 1.35209700 -0.26929200 1.47666700
F -0.75919400 0.90235300 0.48201300
F -0.62667600 -1.09272100 -0.09082300
O 2.17466100 1.28071100 0.00042300
H 1.94073800 1.69768900 0.83627300
