8
energy = -526.6923897300001
C 1.77011300 -0.03521800 0.11261600
O 2.30509600 -0.89434300 -0.52638000
C 0.05128800 0.02990200 0.00628100
F 1.36616200 -0.36386400 1.50933800
F -0.69700500 0.94603000 0.45473700
F -0.60806400 -1.02609700 -0.19835600
O 2.15497100 1.26681600 0.16764500
H 2.94384700 1.32848900 -0.38248400
8
energy = -526.6923972689999
C 1.60923700 0.09839900 -0.03674500
O 2.16973400 -0.70890700 -0.71989000
C -0.10294600 -0.06240200 0.07785100
F 1.42946800 -0.22469500 1.40730400
F -0.90396200 0.76737400 0.59773800
F -0.63718800 -1.20158300 -0.01543500
O 1.82165000 1.44030600 -0.06067300
H 2.51990400 1.58174000 -0.70967700
8
energy = -526.689027831
C 1.76750500 0.00001200 -0.00023500
O 2.24989100 -0.89004600 -0.60753600
C -0.00001300 0.00012100 -0.00008300
F 1.35205600 -0.26926400 1.47654900
F -0.75931700 0.90232200 0.48199800
F -0.62671200 -1.09271900 -0.09093100
O 2.17450700 1.28085000 0.00035900
H 1.94059000 1.69777300 0.83623800
