%mem=28GB
%nprocshared=8
#P M062X/Def2TZVPP ! ASE formatted method and basis
Symm(None)
scf(xqc)
pop(None)
freq
opt(CalcFC)

Gaussian input prepared by ASE

0 1
C                 0.7108363263        1.9719982911        1.0076078932
O                 0.9682246094        0.0000000000        0.0000000000
C                 1.0533709106        3.4689036514        0.8603410329
F                 1.7817416895        3.8250921374        1.9140538177
F                 1.7291457831        3.8216901123       -0.2364540128
F                -0.0858679994        4.1533261148        0.8679025366
O                 1.2075446969        1.4212913555        0.0000000000
H                 0.0000000000        0.0000000000        0.0000000000


