8
energy = -526.742097086
C 1.30071900 0.24452200 -0.23864600
O -0.00029600 0.06172800 0.02586900
C -0.68724400 0.66806800 1.06592600
F -0.68653400 1.98586000 0.95498700
F -1.93168900 0.23951700 0.99457600
F -0.19159800 0.33368000 2.24549600
O 1.79830000 1.07772900 0.63899600
H 2.73128300 1.19529900 0.43219500
8
energy = -526.7421152910001
C 1.07975500 0.24376900 -0.61459600
O -0.14025500 0.05730400 -0.09214500
C -0.60608700 0.66574800 1.06280800
F -0.63323600 1.98303200 0.94966200
F -1.83771600 0.23289000 1.24483400
F 0.11815000 0.33777400 2.11959100
O 1.74043500 1.08267800 0.14150600
H 2.61189400 1.20321000 -0.24970300
8
energy = -526.733165946
C 1.14051700 0.18065200 -0.55877900
O -0.10330200 -0.02866700 -0.03050600
C -0.66299700 0.65180700 1.01556200
F -0.76068000 1.95778400 0.75665800
F -1.86152600 0.17044900 1.23320500
F 0.06326300 0.52593400 2.12886600
O 1.81182500 1.12326000 0.02515400
H 1.41109800 1.60315700 0.77051900
8
energy = -526.7421153619999
C 1.07928800 0.24447300 0.61516800
O -0.14089900 0.05825900 0.09292100
C -0.60609100 0.66544900 -1.06291600
F 0.11801100 0.33552600 -2.11918700
F -1.83804600 0.23334100 -1.24453100
F -0.63220900 1.98291900 -0.95152000
O 1.74064200 1.08173900 -0.14213300
H 2.61224600 1.20216000 0.24877700
8
energy = -526.742097033
C 1.30046200 0.24498400 0.23908800
O -0.00060800 0.06245500 -0.02527700
C -0.68727600 0.66785100 -1.06607400
F -0.19176700 0.33176900 -2.24521800
F -1.93191900 0.23996000 -0.99420400
F -0.68596100 1.98577300 -0.95676400
O 1.79849100 1.07684400 -0.63955600
H 2.73152000 1.19423100 -0.43286100
8
energy = -526.73316598
C 1.14018500 0.18108800 0.55923800
O -0.10378500 -0.02804900 0.03123500
C -0.66307900 0.65158000 -1.01559200
F 0.06305200 0.52395500 -2.12878000
F -1.86193500 0.17076500 -1.23263100
F -0.75990000 1.95792500 -0.75818900
O 1.81206100 1.12261400 -0.02578000
H 1.41159900 1.60196100 -0.77164300
8
energy = -526.748900845
C 1.28096500 0.04454900 0.20630900
O -0.05316400 0.01312600 0.07318700
C -0.59384500 -1.24978100 -0.00866400
F -0.34513200 -1.95644700 1.07931300
F -1.89779200 -1.10009300 -0.13414900
F -0.13406100 -1.90848200 -1.05731100
O 1.56076400 1.31458600 0.26246300
H 2.51520700 1.39608300 0.35903900
8
energy = -526.748900842
C 1.28102800 0.04455400 -0.20534900
O -0.05327300 0.01310100 -0.07397800
C -0.59384500 -1.24977200 0.00910800
F -0.13534100 -1.90677000 1.05938000
F -1.89798400 -1.10011700 0.13263000
F -0.34356600 -1.95807700 -1.07744400
O 1.56068100 1.31455200 -0.26309700
H 2.51523900 1.39607000 -0.35850500
8
energy = -526.747161101
C 1.35704200 0.00000000 0.00000000
O 0.00000000 0.00000000 0.00000000
C -0.58988700 -1.24570400 0.00026000
F -0.25913600 -1.93558200 1.07481000
F -1.89469200 -1.04923900 -0.00095700
F -0.25724800 -1.93720400 -1.07264700
O 1.71908400 1.24017200 0.00000000
H 0.96303600 1.85907100 0.00000100
