8
energy = -526.654849811
C 1.77062500 0.14809400 -0.07403100
O 1.23914600 -0.30876800 -1.12476800
C -0.00638700 0.00723300 -0.01341200
F -0.28726700 1.02179300 0.82571000
F -0.93044800 0.16871500 -0.96683800
F -0.20901100 -1.14003300 0.58299500
O 3.01517100 0.54430600 -0.20593600
H 3.34136800 0.86301100 0.64295300
8
energy = -526.654857496
C 1.80287200 -0.17194300 -0.06059100
O 1.22047800 -0.32874200 -1.17034100
C 0.02763400 -0.01682000 -0.00211100
F -0.09186100 0.85728200 1.01482700
F -0.83868800 0.47363700 -0.89542200
F -0.37755700 -1.20329500 0.37348800
O 3.09842600 0.02555200 -0.13411700
H 3.45817700 0.12093400 0.75473500
8
energy = -526.655207391
C 1.80393600 -0.00039000 0.00020500
O 1.26766400 -0.28103900 -1.11708800
C -0.00009700 -0.00007200 0.00001900
F -0.21464400 0.94929000 0.91585500
F -0.87916800 0.31105600 -0.95666900
F -0.29396200 -1.18192500 0.47270100
O 3.06873900 0.30019800 -0.00025800
H 3.40651000 0.25318300 -0.91860600
