%mem=28GB
%nprocshared=8
#P M062X/Def2TZVPP ! ASE formatted method and basis
Symm(None)
scf(xqc)
pop(None)
freq
opt(CalcFC)

Gaussian input prepared by ASE

0 1
C                 1.3570416639        0.0000000000        0.0000000000
O                 0.0000000000        0.0000000000        0.0000000000
C                -0.5898871717       -1.2457038948        0.0002597158
F                -0.2591356819       -1.9355822757        1.0748099139
F                -1.8946916860       -1.0492394062       -0.0009572801
F                -0.2572481785       -1.9372039447       -1.0726469932
O                 1.7190836445        1.2401718768        0.0000000000
H                 2.2577793049        1.4810981119        0.7787210704


