%mem=28GB
%nprocshared=8
#P M062X/Def2TZVPP ! ASE formatted method and basis
Symm(None)
scf(xqc)
pop(None)
opt(CalcAll,Cartesian)

Gaussian input prepared by ASE

0 1
C                 0.2523320000        1.7612370000       -1.2957040000
O                 1.5597640000        0.3166020000        0.0675190000
C                 1.2191540000        1.2845060000       -2.3723920000
F                 2.4761250000        1.5953370000       -2.0853980000
F                 1.0538780000       -0.0148490000       -2.5583130000
F                 0.9054950000        1.8847100000       -3.5123550000
O                 0.3887100000        1.3184700000       -0.1743480000
H                 1.2194560000       -0.0632390000        0.8870960000


