8
energy = -526.561858482
C 0.90775600 -0.22537600 0.61096900
O 1.68090300 -0.39523000 -0.57560600
C -0.56015400 -0.12354400 0.16191300
F -1.22319000 0.67998000 0.99120400
F -0.76775800 0.31946900 -1.08061700
F -1.08008800 -1.34887000 0.24677400
O 1.55303500 0.99101700 -0.19479300
H 2.36196700 1.16468000 0.31762000
