7
energy = -451.47550403200006
C 1.57110600 -0.06087600 -0.05994200
C 0.02145000 -0.02789300 -0.04549200
F -0.50431500 1.21044500 -0.21526600
F -0.44488100 -0.78938700 -1.02464600
F -0.41838200 -0.48457200 1.11802700
O 2.02296000 1.12427200 -0.23614500
H 1.33691400 1.81959900 -0.32738500
7
energy = -451.47550295700006
C 1.57115000 -0.06075400 0.05890800
C 0.02148800 -0.02784200 0.04500200
F -0.50429200 1.21022400 0.21672000
F -0.41868500 -0.48287400 -1.11903400
F -0.44449000 -0.79076800 1.02320600
O 2.02299300 1.12418300 0.23655500
H 1.33693500 1.81934700 0.32894700
7
energy = -451.47745858900004
C 1.54348100 0.00000000 0.00000000
C 0.00000000 0.00000000 0.00000000
F -0.58751400 1.19741700 0.00124000
F -0.41385900 -0.65430300 -1.08443500
F -0.41428400 -0.65663600 1.08284800
O 1.90315500 1.23570900 0.00000000
H 2.86875500 1.28668200 -0.00014900
