%mem=28GB
%chk=1141903082400600000001_r12_insertion_R_7_1_3_IRC_R_prod
%nprocshared=8
#P M062X/Def2TZVPP ! ASE formatted method and basis
Symm(None)
scf(xqc)
pop(None)
freq
opt(CalcFC)

Gaussian input prepared by ASE

0 1
C                 1.0335350000       -0.3326400000       -0.0744890000
O                 1.7983970000       -1.2532810000       -0.1013450000
C                -0.5614220000       -0.0118100000        0.0415220000
F                -0.8412880000        1.0021430000        0.8845600000
F                -0.9538240000        0.4300250000       -1.1565220000
F                -1.2731250000       -1.0236950000        0.4654360000
O                 1.3491390000        0.9556960000       -0.1125870000
H                 2.2649840000        1.1239770000        0.1400310000


