%mem=28GB
%chk=1141903082400600000001_r12_insertion_R_4_3_1_IRC_F_prod
%nprocshared=8
#P M062X/Def2TZVPP ! ASE formatted method and basis
Symm(None)
scf(xqc)
pop(None)
freq
opt(CalcFC)

Gaussian input prepared by ASE

0 1
C                 0.9627660000       -0.2528250000       -0.1513010000
O                 1.4176440000       -1.2705710000        0.2450970000
C                -0.5484290000        0.0168730000       -0.0284470000
F                -0.5043810000        0.5584560000        1.2031630000
F                -1.1008960000        0.9126100000       -0.8534890000
F                -1.3162350000       -1.0480780000       -0.0601830000
O                 1.6718470000        0.8442720000       -0.4155830000
H                 1.1070620000        1.6012040000       -0.6124520000


