%mem=28GB
%chk=1141942881381180600001_well
%nprocshared=8
#P M062X/Def2TZVPP ! ASE formatted method and basis
Symm(None)
scf(xqc)
pop(None)
freq
opt(CalcFC)

Gaussian input prepared by ASE

0 1
C                 1.2795220000        0.5052900000        0.8521380000
O                 0.6586350000        0.2149890000       -0.3190950000
C                -0.6423570000       -0.2253090000       -0.2037580000
F                -1.4112800000        0.6854010000        0.3613540000
F                -1.0763430000       -0.4560060000       -1.4283190000
F                -0.7137560000       -1.3411450000        0.4960720000
O                 2.4716050000        0.8956960000        0.5429100000
H                 2.6379270000        0.8901410000       -0.4198730000


