%mem=28GB
%chk=1141903082400600000001_r12_insertion_R_7_1_2_IRC_F_prod
%nprocshared=8
#P M062X/Def2TZVPP ! ASE formatted method and basis
Symm(None)
scf(xqc)
pop(None)
freq
opt(CalcFC)

Gaussian input prepared by ASE

0 1
C                 0.9985360000        0.0105540000       -0.0301720000
O                 1.6704240000       -0.8683410000       -0.4637860000
C                -0.5398050000       -0.0907380000        0.0642010000
F                -1.0839170000        0.6990080000        0.9798330000
F                -0.9632200000        0.2972940000       -1.1408680000
F                -0.9547590000       -1.3250290000        0.2884970000
O                 1.4031430000        1.2369130000        0.2816290000
H                 2.3488480000        1.3007530000        0.0882310000


