%mem=28GB
%chk=1141903082400600000001_intra_H_migration_1_8_IRC_R_prod
%nprocshared=8
#P M062X/Def2TZVPP ! ASE formatted method and basis
Symm(None)
scf(xqc)
pop(None)
freq
opt(CalcFC)

Gaussian input prepared by ASE

0 1
C                 0.9899560000        0.1102600000       -0.0124270000
O                 1.7355240000       -0.7301720000       -0.3998960000
C                -0.5582430000       -0.1054580000        0.0113610000
F                -1.1742760000        0.6033670000        0.9481290000
F                -1.0654630000        0.2362570000       -1.1723770000
F                -0.8139260000       -1.3881190000        0.2184600000
O                 1.4177300000        1.2978970000        0.3900220000
H                 2.3795620000        1.2722560000        0.2785040000


