%mem=28GB
%chk=1141903082400600000001_r13_insertion_ROR_4_3_1_2_IRC_F_prod
%nprocshared=8
#P M062X/Def2TZVPP ! ASE formatted method and basis
Symm(None)
scf(xqc)
pop(None)
freq
opt(CalcFC)

Gaussian input prepared by ASE

0 1
C                 0.2311130000        0.6758230000        0.2039500000
O                -0.3450900000        0.4202280000       -1.1070900000
C                -0.1782420000       -0.6232350000       -0.2384850000
F                -0.5562900000        1.4030950000        0.9954720000
F                -1.2712440000       -1.1983610000        0.2296140000
F                 0.7180930000       -1.5329570000       -0.5755690000
O                 1.5213450000        0.9948850000        0.3357530000
H                 1.6164340000        1.9522370000        0.4084310000


