%mem=28GB
%chk=1141903082400600000001_r13_insertion_CO2_3_8_IRC_F_prod
%nprocshared=8
#P M062X/Def2TZVPP ! ASE formatted method and basis
Symm(None)
scf(xqc)
pop(None)
freq
opt(CalcFC)

Gaussian input prepared by ASE

0 1
C                 1.8190490000        0.0484550000       -0.3118870000
O                 1.6742160000       -0.4998870000       -1.3116110000
C                -0.8164910000        0.0498540000        0.2739130000
F                -1.6407760000        0.4667710000        1.2323920000
F                -1.1714410000        0.6236120000       -0.8750530000
F                -0.9484010000       -1.2692800000        0.1401250000
O                 1.9645620000        0.5993710000        0.6925290000
H                 0.1924040000        0.3174830000        0.5516240000


