%mem=28GB
%chk=1141903082400600000001_r12_insertion_R_3_1_2_IRC_R_prod
%nprocshared=8
#P M062X/Def2TZVPP ! ASE formatted method and basis
Symm(None)
scf(xqc)
pop(None)
freq
opt(CalcFC)

Gaussian input prepared by ASE

0 1
C                 0.9842860000        0.2391020000       -0.0160480000
O                 1.5216120000       -0.3916300000       -0.8669700000
C                -0.5697860000       -0.0789190000        0.0369760000
F                -1.4084520000        0.8133150000        0.5415210000
F                -0.9438850000       -0.2956910000       -1.2165550000
F                -0.7150560000       -1.2351220000        0.6856250000
O                 1.6483680000        1.0605850000        0.8057010000
H                 2.5769160000        1.0015060000        0.5241470000


