%mem=28GB
%chk=1141903082400600000001_r12_insertion_R_7_1_2_IRC_R_prod
%nprocshared=8
#P M062X/Def2TZVPP ! ASE formatted method and basis
Symm(None)
scf(xqc)
pop(None)
freq
opt(CalcFC)

Gaussian input prepared by ASE

0 1
C                 0.9130300000       -0.2474330000        0.5917660000
O                 1.6848050000       -0.3713480000       -0.6007920000
C                -0.5584070000       -0.1312220000        0.1568150000
F                -1.1954990000        0.7004590000        0.9796470000
F                -0.7749690000        0.2919000000       -1.0910660000
F                -1.0997700000       -1.3442630000        0.2717780000
O                 1.5472990000        1.0005940000       -0.1736350000
H                 2.3559830000        1.1634380000        0.3429520000


