%mem=28GB
%chk=1141903082400600000001_r12_insertion_R_2_1_3_IRC_F_prod
%nprocshared=8
#P M062X/Def2TZVPP ! ASE formatted method and basis
Symm(None)
scf(xqc)
pop(None)
freq
opt(CalcFC)

Gaussian input prepared by ASE

0 1
C                 1.2842520000        0.4329190000        0.8411460000
O                 0.7046270000        0.0843950000       -0.3403730000
C                -0.6268900000       -0.2473270000       -0.2097450000
F                -1.2875620000        0.7472230000        0.3550280000
F                -1.1102330000       -0.4501660000       -1.4200760000
F                -0.7936110000       -1.3406830000        0.5074520000
O                 2.4287810000        0.9532570000        0.5542370000
H                 2.6045900000        0.9894390000       -0.4062410000


