%mem=28GB
%chk=1141903082400600000001_r12_insertion_R_8_7_1_IRC_R_prod
%nprocshared=8
#P M062X/Def2TZVPP ! ASE formatted method and basis
Symm(None)
scf(xqc)
pop(None)
freq
opt(CalcFC)

Gaussian input prepared by ASE

0 1
C                 0.9786320000        0.1688020000       -0.0810530000
O                 1.6317340000       -0.1601550000       -1.0176980000
C                -0.5598140000       -0.0985030000       -0.0011260000
F                -1.2239750000        0.8761470000        0.6076480000
F                -1.0404460000       -0.2328400000       -1.2265960000
F                -0.7812020000       -1.2324710000        0.6624820000
O                 1.5163830000        0.7558180000        0.9783350000
H                 2.4630400000        0.8156470000        0.7825760000


