%mem=28GB
%chk=1141903082400600000001_r13_insertion_ROR_8_7_1_2_IRC_R_prod
%nprocshared=8
#P M062X/Def2TZVPP ! ASE formatted method and basis
Symm(None)
scf(xqc)
pop(None)
opt(CalcAll,Cartesian)

Gaussian input prepared by ASE

0 1
C                -1.1989980000       -0.4852020000       -0.0690200000
O                -2.1326260000        0.2046210000        0.5866220000
C                 0.2551520000        0.0306170000        0.1034890000
F                 0.9435370000       -0.8254290000        0.8523070000
F                 0.8497320000        0.1447690000       -1.0699050000
F                 0.2918690000        1.2241090000        0.7161770000
O                -1.4239880000       -1.4558540000       -0.7100650000
H                -1.7408800000        0.9640350000        1.0329970000


