%mem=28GB
%chk=1141903082400600000001_r12_insertion_R_1_3_4_IRC_R_prod
%nprocshared=8
#P M062X/Def2TZVPP ! ASE formatted method and basis
Symm(None)
scf(xqc)
pop(None)
freq
opt(CalcFC)

Gaussian input prepared by ASE

0 1
C                 1.2497150000       -0.0308390000        0.5711490000
O                 1.5502510000       -1.1619120000        0.6180220000
C                -1.0019460000       -0.2771380000       -1.0980010000
F                 0.2236960000        0.4743350000        1.2903710000
F                -1.5682940000        0.8864180000       -0.9907380000
F                -1.7075090000       -1.0579240000       -0.3579520000
O                 1.8046510000        0.9224850000       -0.1520030000
H                 1.3461400000        1.7598890000       -0.0188750000


