%mem=28GB
%chk=1141903082400600000001_r12_insertion_R_3_1_7_IRC_F_prod
%nprocshared=8
#P M062X/Def2TZVPP ! ASE formatted method and basis
Symm(None)
scf(xqc)
pop(None)
freq
opt(CalcFC)

Gaussian input prepared by ASE

0 1
C                 0.9877780000       -0.1340710000        0.0341930000
O                 1.5585360000       -1.1722810000        0.1028020000
C                -0.5491340000       -0.0056580000       -0.0152680000
F                -0.9842100000        0.7073390000        1.0205190000
F                -0.9237860000        0.6094340000       -1.1339930000
F                -1.1114940000       -1.1981240000        0.0232200000
O                 1.5426520000        1.0746100000       -0.0110060000
H                 2.5043980000        0.9656220000        0.0229100000


