%mem=28GB
%chk=1141903082400600000001_intra_H_migration_2_8_IRC_R_prod
%nprocshared=8
#P M062X/Def2TZVPP ! ASE formatted method and basis
Symm(None)
scf(xqc)
pop(None)
freq
opt(CalcFC)

Gaussian input prepared by ASE

0 1
C                -0.4201390000        0.3922330000       -0.8133840000
O                 0.1327520000        0.0309550000       -1.9616650000
C                 0.2067720000       -0.2197780000        0.4813180000
F                 0.8971450000       -1.3308330000        0.2652950000
F                 1.0214340000        0.6782350000        1.0326790000
F                -0.7616040000       -0.4879510000        1.3456590000
O                -1.3246790000        1.1615600000       -0.7627960000
H                -0.3527340000        0.5208950000       -2.6418270000


