%mem=28GB
%chk=1141903082400600000001_r13_insertion_ROR_4_3_1_7_IRC_F_prod
%nprocshared=8
#P M062X/Def2TZVPP ! ASE formatted method and basis
Symm(None)
scf(xqc)
pop(None)
freq
opt(CalcFC)

Gaussian input prepared by ASE

0 1
C                 2.3419790000        0.4951980000       -0.4419200000
O                 3.2622450000        1.1116470000       -0.6008370000
C                -0.5064840000       -0.1243250000        0.0939600000
F                -2.4974980000       -0.3382170000        0.4782690000
F                -0.5608890000       -0.8403630000       -0.9942640000
F                -0.1537630000       -0.8988650000        1.0817040000
O                -0.6661580000        1.0406450000        0.1580880000
H                -2.5047380000        0.5872780000        0.5057120000


