%mem=28GB
%chk=1141903082400600000001_ketoenol_2_1_3_4_IRC_R_prod
%nprocshared=8
#P M062X/Def2TZVPP ! ASE formatted method and basis
Symm(None)
scf(xqc)
pop(None)
opt(CalcAll,Cartesian)

Gaussian input prepared by ASE

0 1
C                -1.7149410000       -0.8975570000        0.3746610000
O                -2.4269850000        0.0009950000        0.2716930000
C                 0.5685050000        0.9038870000       -0.4206450000
F                 1.7903710000       -1.6795160000        0.4600430000
F                 1.4052970000        1.1050810000       -1.3794390000
F                 0.7559920000        1.8868160000        0.3905430000
O                -1.0341660000       -1.8354240000        0.4590100000
H                 0.8716540000       -1.7348910000        0.4594040000


