%mem=28GB
%chk=1141903082400600000001_well
%nprocshared=8
#P M062X/Def2TZVPP ! ASE formatted method and basis
Symm(None)
scf(xqc)
pop(None)
freq
opt(CalcFC)

Gaussian input prepared by ASE

0 1
C                 0.5036744603        0.2400858909        0.0072461614
O                 0.9791578335        1.4025941333        0.2411252164
C                -0.9481764839       -0.0435129535        0.0263443484
F                -1.4371840840       -0.5139556439       -1.1714927791
F                -1.2770170042       -0.8707484008        1.0783767130
F                -1.5930819212        1.1517655978        0.2846744195
O                 1.3905265890       -0.7802747687       -0.2723803260
H                 2.3821006106       -0.5859538550       -0.1938937536


