%mem=28GB
%chk=1141903082400600000001_r12_insertion_R_1_3_4_IRC_F_prod
%nprocshared=8
#P M062X/Def2TZVPP ! ASE formatted method and basis
Symm(None)
scf(xqc)
pop(None)
freq
opt(CalcFC)

Gaussian input prepared by ASE

0 1
C                 0.9727660000       -0.2373340000       -0.1054040000
O                 1.4216630000       -1.2542860000        0.2997490000
C                -0.5464630000        0.0096960000       -0.0561630000
F                -0.5729250000        0.5338800000        1.1834920000
F                -1.0690820000        0.9096910000       -0.8958470000
F                -1.2962100000       -1.0651340000       -0.1418710000
O                 1.6783040000        0.8731720000       -0.3181620000
H                 1.1132780000        1.6249650000       -0.5332220000


