%mem=28GB
%chk=1141903082400600000001_well_mp2
%nprocshared=8
#P mp2/6-31G ! ASE formatted method and basis
Symm(None)
scf(xqc)
pop(None)
freq
opt(CalcFC)

Gaussian input prepared by ASE

0 1
C                 0.5782050000        0.3097910000        0.0255270000
O                 1.0224670000        1.3974910000        0.2012810000
C                -0.9327740000       -0.0065240000        0.0488520000
F                -1.3149940000       -0.5156590000       -1.1195020000
F                -1.2022290000       -0.8956800000        1.0013980000
F                -1.6274550000        1.0905330000        0.2824290000
O                 1.2676470000       -0.8004030000       -0.2150300000
H                 2.2091320000       -0.5795490000       -0.2249550000


