%mem=28GB
%chk=1141903082400600000001_r13_insertion_CO2_3_8_IRC_R_prod
%nprocshared=8
#P M062X/Def2TZVPP ! ASE formatted method and basis
Symm(None)
scf(xqc)
pop(None)
freq
opt(CalcFC)

Gaussian input prepared by ASE

0 1
C                 1.2472140000        0.0185050000       -0.2421250000
O                 1.6250320000       -0.4703990000       -1.2458920000
C                -0.6086630000       -0.0004590000        0.1335650000
F                -1.3260350000        0.4940370000        1.2134770000
F                -1.1383750000        0.6075940000       -0.9170510000
F                -0.9142110000       -1.2890170000        0.1006080000
O                 1.8378190000        0.6248940000        0.7689210000
H                 1.1289360000        0.8655800000        1.3780380000


