%mem=28GB
%chk=1141903082400600000001_r13_insertion_ROR_8_7_1_2_IRC_F_prod
%nprocshared=8
#P M062X/Def2TZVPP ! ASE formatted method and basis
Symm(None)
scf(xqc)
pop(None)
freq
opt(CalcFC)

Gaussian input prepared by ASE

0 1
C                -0.6284590000       -0.0314200000        0.2767630000
O                -2.7833790000       -0.0363420000        1.2535650000
C                 0.8317780000        0.0638230000       -0.1835460000
F                 1.6425590000       -0.1535590000        0.8278130000
F                 1.0865340000       -0.8203190000       -1.1334290000
F                 1.0127320000        1.2840580000       -0.6524820000
O                -1.5778670000       -0.3460650000       -0.2676780000
H                -3.7414880000       -0.1639060000        1.3043330000


