%mem=28GB
%chk=1141903082400600000001_r12_insertion_R_4_3_5_IRC_F_prod
%nprocshared=8
#P M062X/Def2TZVPP ! ASE formatted method and basis
Symm(None)
scf(xqc)
pop(None)
freq
opt(CalcFC)

Gaussian input prepared by ASE

0 1
C                 1.2387540000       -0.1617290000        0.3046880000
O                 1.9324890000       -1.0284340000        0.7345720000
C                -0.1882580000       -0.4730010000       -0.0752620000
F                -0.8236370000        0.1583590000       -0.9102740000
F                -2.1482110000        1.6163210000       -0.3247480000
F                -0.7368830000       -1.4919240000        0.4331360000
O                 1.5296060000        1.0892430000        0.0303750000
H                 2.4581860000        1.2630000000        0.2444000000


