%mem=28GB
%chk=1141903082400600000001_r12_insertion_R_4_3_1_IRC_R_prod
%nprocshared=8
#P M062X/Def2TZVPP ! ASE formatted method and basis
Symm(None)
scf(xqc)
pop(None)
opt(CalcAll,Cartesian)

Gaussian input prepared by ASE

0 1
C                 1.1892870000        0.1469960000        0.6763450000
O                 0.8892630000       -0.9563870000        0.9498130000
C                -1.2585730000        0.0332860000       -0.8735960000
F                 0.6959680000        1.2105900000        1.3215760000
F                -2.2478900000       -0.0256990000       -0.0469870000
F                -1.4559900000       -0.9366280000       -1.7011630000
O                 2.0366160000        0.5259120000       -0.2603130000
H                 2.0598790000        1.4876290000       -0.3211980000


