7
energy = -762.1783832620001
C 1.92212300 -0.65386500 -1.64148400
F 2.53439700 0.31102100 -2.21939700
S 1.35922900 -0.01148500 0.03208700
O -0.07164300 -0.10412500 0.02417300
O 2.19843800 -0.69778800 0.98694200
O 1.72250100 1.56448200 0.08648100
H 2.55661200 1.69427000 0.55458300
7
energy = -762.1783965240002
C 1.79659500 -0.85736000 -1.71652400
F 2.35844000 -0.00944400 -2.49446100
S 1.44989800 0.03815600 -0.10146300
O 0.02638700 0.00146900 0.06700500
O 2.38053000 -0.53754500 0.84174700
O 1.85225400 1.59032600 -0.31937600
H 2.73847000 1.75265400 0.02700100
7
energy = -762.1783929589999
C 1.91738300 -0.73880600 -1.66179900
F 2.40168100 0.21562500 -2.36490200
S 1.44437000 0.00013700 -0.00025000
O -0.00034500 0.00031600 0.00085600
O 2.23754300 -0.69138100 0.97378500
O 1.94631300 1.53854700 -0.00054700
H 1.21415900 2.12402000 -0.23047500
