%mem=28GB
%nprocshared=8
#P wb97xd/6-311++G(d,p) ! ASE formatted method and basis
Symm(None)
scf(xqc)
pop(None)
freq
opt(CalcFC, Tight)

Gaussian input prepared by ASE

0 2
C                -0.7329090000        0.2782480000        1.3334960000
C                -0.1419800000       -0.0845250000       -0.0180800000
F                -0.4630990000       -1.2856540000       -0.4478430000
F                -0.3054800000        0.8319890000       -0.9475070000
F                -0.4115210000       -0.6514240000        2.2288290000
F                -0.2555330000        1.4540860000        1.7318990000
F                -2.0697260000        0.3661020000        1.2862010000


