%mem=28GB
%nprocshared=8
#P wb97xd/6-311++G(d,p) ! ASE formatted method and basis
Symm(None)
scf(xqc)
pop(None)
freq
opt(CalcFC, Tight)

Gaussian input prepared by ASE

0 1
C                -1.6954800000        0.0128720000        0.9791650000
C                -1.0255090000        0.3232790000       -0.3716330000
F                -0.1929810000       -0.6854550000       -0.6911210000
F                -1.9751410000        0.4202000000       -1.3211240000
F                -2.3840660000       -1.1211180000        0.9392700000
F                -0.7619180000       -0.0842990000        1.9285440000
F                -2.5239530000        1.0075770000        1.3054570000
H                -0.4642640000        1.2591970000       -0.3166640000


