8
energy = -576.007934627
C -1.69548000 0.01287200 0.97916500
C -1.02550900 0.32327900 -0.37163300
F -0.19298100 -0.68545500 -0.69112100
F -1.97514100 0.42020000 -1.32112400
F -2.38406600 -1.12111800 0.93927000
F -0.76191800 -0.08429900 1.92854400
F -2.52395300 1.00757700 1.30545700
H -0.46426400 1.25919700 -0.31666400
