8
energy = -862.0761379090001
C 2.05314600 -0.42381900 1.59419100
F 1.99876600 -1.69608300 1.89875600
F 1.50652100 0.32549600 2.52683200
S 1.45581600 -0.05533100 -0.08890100
O 2.25629400 -0.82860500 -0.98277200
O 0.01486400 -0.06239600 -0.10938300
O 1.94903000 1.46849100 -0.17899000
H 1.20602900 2.06398100 -0.01805300
8
energy = -862.0761576570002
C 2.10193200 -0.61419100 1.68146000
F 1.95095400 -1.90781300 1.81598700
F 1.63614700 0.04272100 2.72144200
S 1.50326900 0.02282900 0.08105300
O 2.21919300 -0.68429400 -0.93136600
O 0.06655700 0.13243800 0.10435100
O 2.11851500 1.50121700 0.17794100
H 1.43038600 2.12666700 0.43842300
8
energy = -862.075659827
C 2.05497700 -0.47314400 1.65002800
F 2.07444600 -1.76948400 1.84290700
F 1.48853500 0.16059100 2.64754600
S 1.43130800 0.00005800 0.00002400
O 2.22597300 -0.72533900 -0.95124300
O -0.00012700 0.00032500 0.00002400
O 1.88312100 1.53874400 -0.00023500
H 2.77839100 1.62079400 -0.35290900
