9
energy = -961.9938538040001
C -0.06796700 -0.05913500 -0.06422800
F -0.54301300 0.43081800 -1.19322100
F -0.56382900 0.62795000 0.95857300
S 1.79696000 0.06685900 -0.03652500
O 2.22806200 -0.40470200 1.24962200
O 2.28193400 -0.44392100 -1.27783900
O 1.94468700 1.66319900 -0.08848500
F -0.40822300 -1.32987700 0.05136700
H 1.98540600 2.02337700 0.80709000
9
energy = -961.993845464
C 0.06447600 0.04658900 -0.00260800
F -0.41039200 0.62526500 -1.08887000
F -0.28081500 0.75875400 1.06401600
S 1.92885100 -0.06003700 -0.08736400
O 2.37236700 -0.61835400 1.15918800
O 2.27230200 -0.59076700 -1.36696700
O 2.27197300 1.50660900 -0.11426500
F -0.42507900 -1.17514900 0.10509100
H 2.41059100 1.83291000 0.78447500
9
energy = -961.9938458150001
C 0.00012800 0.00004400 0.00003200
F -0.43298900 0.68190000 -1.05428100
F -0.45740700 0.56064700 1.10307500
S 1.86949700 -0.00000500 0.00022100
O 2.30020800 -0.49752600 1.26667400
O 2.28711000 -0.54486300 -1.26113800
O 2.12375000 1.58370400 -0.00037900
F -0.42340600 -1.24837800 -0.07741600
H 2.20188200 1.90831200 -0.90699900
