%mem=28GB
%nprocshared=8
#P wb97xd/6-311++G(d,p) ! ASE formatted method and basis
Symm(None)
scf(xqc)
pop(None)
freq
opt(CalcFC, Tight)

Gaussian input prepared by ASE

0 1
C                -0.6308802730        1.1419750300        0.3377656305
S                 1.7503388420        0.0000000000        0.0000000000
O                 0.0000000000        0.0000000000        0.0000000000
O                 2.0419711507       -0.5009493009        1.3218949874
O                 1.9113099461        1.6060427371        0.0000000000
F                -1.9363628608        0.9334626471        0.2884674571
F                -0.3096663506        1.5532775193        1.5733872581
F                -0.3264836184        2.1477580710       -0.4961209399
H                 1.5856629603        1.9970726024        0.8245100347


