%mem=28GB
%nprocshared=8
#P wb97xd/6-311++G(d,p) ! ASE formatted method and basis
Symm(None)
scf(xqc)
pop(None)
freq
opt(CalcFC, Tight)

Gaussian input prepared by ASE

0 1
C                 0.0000000000        0.0000000000        0.0000000000
F                -0.4334092525        0.6810107902       -1.0547262649
F                -0.4573660175        0.5614057483        1.1027095816
S                 1.8693723368        0.0000000000        0.0000000000
O                 2.3001463430       -0.4980229123        1.2662674935
O                 2.2872454951       -0.5442313382       -1.2615745536
O                 2.1234943341        1.5837521533        0.0000000000
F                -0.4234028570       -1.2485337814       -0.0763957552
H                 2.2026925816        1.9084549122       -0.9064904649


