%mem=28GB
%nprocshared=8
#P wb97xd/6-311++G(d,p) ! ASE formatted method and basis
Symm(None)
scf(xqc)
pop(None)
freq
opt(CalcFC, Tight)

Gaussian input prepared by ASE

0 1
C                -0.6308802730       -0.2784738985       -1.1578622017
S                 1.7503388420        0.0000000000        0.0000000000
O                 0.0000000000        0.0000000000        0.0000000000
O                 2.0419711507       -0.5009493009        1.3218949874
O                 1.9113099461        1.6060427371        0.0000000000
F                -1.9363628608       -0.2169111775       -0.9526360945
F                -0.3096663506        0.5859545758       -2.1318714199
F                -0.3264836184       -1.5035323728       -1.6119525807
H                 2.8379658229        1.8715562822       -0.0978700949


