11
energy = -1099.85421311
C -0.44188200 0.90759300 -1.14751800
C 0.05835600 0.02312000 -0.02236000
F -0.36558700 0.50567600 1.14371600
F -0.36557600 -1.24591900 -0.15532600
S 1.92827400 -0.05309500 0.02701400
O 2.28780600 -0.79824700 1.19045800
O 2.39345600 -0.36407700 -1.29784500
O 2.23920100 1.49583500 0.32857300
F -0.34931900 0.39172100 -2.35025800
F -1.61272300 1.46710900 -0.93656200
H 2.49175800 1.94433100 -0.48855000
11
energy = -1099.8542349699999
C -0.63097300 0.84198600 -1.12567400
C -0.04264900 -0.02003000 -0.02599000
F -0.49866000 0.39323300 1.15451000
F -0.34999500 -1.31892500 -0.18784800
S 1.82674500 0.07449600 0.00869000
O 2.26432200 -0.66722900 1.14737700
O 2.30575900 -0.15439500 -1.32798600
O 1.99706700 1.63624300 0.35330300
F -0.50309800 0.36522000 -2.34120700
F -1.84547100 1.28845000 -0.89312000
H 2.19950200 2.12918400 -0.45208500
11
energy = -1099.85547878
C -0.54272200 0.86272700 -1.18045800
C 0.03052000 0.05379400 -0.03710300
F -0.36027500 0.59137900 1.12539800
F -0.36024700 -1.23110600 -0.07469100
S 1.90128400 0.04390000 -0.03890800
O 2.31750300 -0.72148300 1.10248200
O 2.34534900 -0.20903900 -1.37329800
O 2.15777200 1.60337600 0.25079000
F -0.45384600 0.30196100 -2.36149500
F -1.74013400 1.36146800 -0.95553900
H 2.21379900 1.76113800 1.20231000
11
energy = -1099.85606956
C -0.52171200 -1.31765400 -0.35408600
C 0.08808000 0.01442000 0.01583900
F -0.23040700 0.91638100 -0.92662800
F -0.34932900 0.46975100 1.20040300
S 1.95518000 -0.09087100 0.07649500
O 2.34335700 -0.66316800 1.32518300
O 2.36915700 -0.60253600 -1.20200800
O 2.29165100 1.47391200 0.15865100
F -0.19415300 -2.31786800 0.43187300
F -1.81436300 -1.27354900 -0.59253700
H 2.32630400 1.85868500 -0.72691200
11
energy = -1099.85603288
C -0.56575300 -1.39183300 -0.33148800
C -0.05895100 -0.02148600 0.05378700
F -0.50334700 0.87523000 -0.84148300
F -0.47499200 0.35740000 1.27251000
S 1.81078300 0.04060900 0.02232100
O 2.31024800 -0.53215900 1.23060700
O 2.20406700 -0.39242200 -1.29136700
O 2.01074300 1.62616200 0.14275900
F -0.11164800 -2.38090100 0.40405600
F -1.86753300 -1.45775200 -0.50696700
H 1.96893200 2.03884500 -0.72983300
11
energy = -1099.85595454
C -0.54336400 -1.38146100 -0.27300500
C 0.01334700 0.00174400 -0.03364300
F -0.41067500 0.81780800 -0.99816500
F -0.37388200 0.51381300 1.15757600
S 1.88340200 -0.00277900 -0.04318300
O 2.33414800 -0.64228000 1.16143000
O 2.29528100 -0.39755100 -1.35337800
O 2.13184400 1.57651500 0.07810000
F -0.19089900 -2.29206700 0.60443400
F -1.83161200 -1.41218700 -0.53359000
H 2.20141400 1.83002000 1.00783900
11
energy = -1099.8561351600001
C -0.53752200 0.41077500 1.33932300
C 0.07153000 0.05055700 0.00553700
F -0.38776600 -1.13972300 -0.38024400
F -0.22822300 0.95594000 -0.95512800
S 1.93813200 -0.07960200 0.07255500
O 2.28489100 -0.66432100 1.33021600
O 2.35499900 -0.60527600 -1.19677300
O 2.33222000 1.47217700 0.15368300
F -0.13998700 1.55407100 1.84959000
F -1.84474800 0.27232600 1.39350100
H 2.42023900 1.84146000 -0.73483900
11
energy = -1099.85613166
C -0.61572900 0.33257200 1.40956100
C -0.05040700 0.01616800 0.04575000
F -0.42237300 -1.21338600 -0.30976200
F -0.48113900 0.88315400 -0.90040700
S 1.82122300 0.05227300 0.01091000
O 2.28609100 -0.49045600 1.24909000
O 2.21377500 -0.44354100 -1.27805300
O 2.07968800 1.63342500 0.06658100
F -0.29481100 1.51122500 1.89260500
F -1.90043400 0.07874000 1.53616700
H 2.08666400 2.00239900 -0.82639400
11
energy = -1099.85548363
C -0.56643200 0.38622200 1.34874700
C -0.00024800 0.00033800 0.00008800
F -0.38708100 -1.24298800 -0.29448400
F -0.42135800 0.82263600 -0.97619800
S 1.87303900 0.00027000 0.00021400
O 2.28773500 -0.56040800 1.25836600
O 2.28693200 -0.50156800 -1.27012700
O 2.17351900 1.57455700 -0.00060100
F -0.11669600 1.53271900 1.83348600
F -1.87222700 0.29870200 1.44103700
H 2.25182000 1.90197200 0.90503600
