%mem=28GB
%nprocshared=8
#P wb97xd/6-311++G(d,p) ! ASE formatted method and basis
Symm(None)
scf(xqc)
pop(None)
freq
opt(CalcFC, Tight)

Gaussian input prepared by ASE

0 2
C                -0.5658056518       -1.3612290938       -0.3395942594
C                 0.0000000000        0.0000000000        0.0000000000
F                -0.3870107289        0.8763278453       -0.9297900289
F                -0.4213161129        0.4346202347        1.2000967513
S                 1.8732651836        0.0000000000        0.0000000000
O                 2.2877009894       -0.5614834730        1.2578594499
O                 2.2874195395       -0.5009237374       -1.2705900556
O                 2.1737625201        1.5742695633        0.0000000000
F                -0.1146604477       -2.3538993045        0.4107377589
F                -1.8716567743       -1.3982933540       -0.4601893533
H                 1.4608500950        2.0523041506       -0.4436296044


