11
energy = -1099.86902328
C 3.38899700 -0.91838500 1.91812900
C 2.01311000 -0.40162900 1.55996000
F 1.39675300 0.28417900 2.49599700
S 1.46506500 -0.05081600 -0.09372700
O 2.32307500 -0.76929800 -0.98011700
O 0.03217100 -0.15630900 -0.09998400
O 1.84220600 1.50950000 -0.22404000
F 3.64586600 -2.06055600 1.29402700
F 4.34353300 -0.03762100 1.59133300
F 3.44946000 -1.12121500 3.23360100
H 1.05761300 2.05084000 -0.06752800
11
energy = -1099.8690157200003
C 3.44708700 -1.03633100 1.94648700
C 2.07259400 -0.46672900 1.67329200
F 1.49000800 0.13585800 2.68511800
S 1.49205400 0.04762600 0.07448300
O 2.31804400 -0.59431700 -0.89701100
O 0.05792800 -0.03771500 0.09329500
O 1.89028000 1.60811500 0.08412800
F 3.66817400 -2.11891100 1.21214100
F 4.40937900 -0.14408200 1.67901600
F 3.53530400 -1.36252100 3.23531100
H 1.11784000 2.14233300 0.31014700
11
energy = -1099.86924042
C 3.39336600 -0.90761500 1.91026000
C 1.95695100 -0.53635100 1.61112900
F 1.25028700 -0.09242700 2.61936000
S 1.42635600 -0.00024700 0.00002000
O 2.23748400 -0.71303000 -0.94739300
O -0.00045500 0.00132500 0.00034700
O 1.87257600 1.54703400 -0.00058500
F 3.72906200 -2.05295400 1.32967900
F 4.23564000 0.04246800 1.45463500
F 3.56981200 -1.01822300 3.22111600
H 2.77972800 1.62983600 -0.32386500
