%mem=28GB
%nprocshared=8
#P wb97xd/6-311++G(d,p) ! ASE formatted method and basis
Symm(None)
scf(xqc)
pop(None)
freq
opt(CalcFC, Tight)

Gaussian input prepared by ASE

0 1
C                -0.6566755217        0.7359255945        1.1984538788
C                 0.0000000000        0.0000000000        0.0000000000
F                -0.3228747558       -1.3012814095        0.0729433330
F                -0.4489871085        0.4981642162       -1.1456619541
S                 1.9044404701        0.0000000000        0.0000000000
O                 2.2611505430       -0.5059700231       -1.3228736569
O                 1.9065825857        1.6607334070        0.0000000000
F                 0.0342982683        0.4624960126        2.3119195256
F                -0.6786914452        2.0449671117        1.0162179279
F                -1.9054493084        0.3093402113        1.3644478044
H                 1.7068019509        1.9759681482       -0.8876372575


