11
energy = -1124.57409056
C -0.72334800 0.63180000 -1.25680900
C -0.02008500 0.06977700 0.00544500
F -0.35415900 0.81515100 1.06436200
F -0.43676700 -1.18867900 0.20812500
S 1.88686500 -0.02740700 -0.07755300
O 2.18002800 -0.47113600 -1.44367800
O 2.17607500 1.57459300 0.07810300
F -0.14427800 1.79243400 -1.61314400
F -0.64050000 -0.21219500 -2.26704100
F -2.00367800 0.87532300 -0.99914400
H 1.88044300 2.06905300 -0.69957100
11
energy = -1124.57050492
C -0.77903600 0.74661500 -1.22280100
C -0.16722700 0.05468400 0.02930000
F -0.66914100 0.62347500 1.13541400
F -0.50396500 -1.23963500 0.01332500
S 1.72301600 0.05449900 0.23655500
O 2.27036500 -0.81928600 -0.79599900
O 1.79617100 1.64106200 -0.24566100
F -0.78580800 2.06387500 -1.08503200
F -0.09893900 0.41851500 -2.31314500
F -2.04043000 0.33575700 -1.36824300
H 2.58715400 2.04975700 0.12020600
11
energy = -1124.57048875
C -0.67138700 0.80733800 -1.17975600
C -0.02075300 0.10489400 0.04676400
F -0.39786000 0.73790400 1.16748300
F -0.44956400 -1.16096400 0.09563000
S 1.87478600 -0.02834500 0.11782800
O 2.27994500 -0.97258800 -0.91832000
O 2.02426200 1.53251500 -0.42684000
F -0.57818600 2.12481500 -1.08032500
F -0.09433600 0.40584200 -2.30437100
F -1.96504200 0.48280600 -1.22574800
H 2.86772600 1.89311500 -0.13516100
11
energy = -1124.5749257700004
C -0.63646500 -1.38713100 -0.04333000
C -0.05801100 0.04726400 -0.05994700
F -0.32487700 0.62271500 -1.24249100
F -0.63273400 0.76245000 0.91397800
S 1.83112500 0.09844400 0.24143700
O 2.39469100 -0.69723400 -0.85204900
O 1.94105000 1.69499800 -0.10227800
F -0.27307900 -2.06049100 -1.12177900
F -0.18449500 -2.02288000 1.04186800
F -1.96460800 -1.34691000 0.01175000
H 1.70799900 1.87191300 -1.02559700
11
energy = -1124.5705676200002
C -0.67286400 -1.46368900 -0.07099600
C -0.17941400 0.00482100 -0.10435600
F -0.42947100 0.52904000 -1.29921500
F -0.83287200 0.69694500 0.84064500
S 1.67551400 0.13483800 0.31147000
O 2.37545700 -0.59668300 -0.74177500
O 1.63031500 1.74899100 -0.06133500
F -0.19975000 -2.14963700 -1.09798600
F -0.26019700 -2.03959800 1.06337200
F -2.00143000 -1.49914500 -0.10450200
H 2.22687200 2.21785800 0.53106300
11
energy = -1124.57060003
C -0.63304800 -1.37663700 -0.03272900
C -0.02014400 0.04503200 -0.09902900
F -0.31297200 0.59944300 -1.27030900
F -0.53993500 0.78148300 0.89423400
S 1.86491200 0.01350300 0.17657400
O 2.41908800 -0.76488700 -0.92858000
O 1.92990300 1.62908300 -0.18699700
F -0.29900200 -2.09047600 -1.09474500
F -0.18652800 -1.99611000 1.06530200
F -1.95853500 -1.29909200 0.03470700
H 2.60585300 2.04041500 0.36122300
11
energy = -1124.57467469
C -0.67530300 0.69389600 1.24171800
C 0.01926400 0.02293500 0.03324600
F -0.28569700 -1.27706900 0.02767900
F -0.42380100 0.58559200 -1.10212400
S 1.93339500 0.11858400 0.04865800
O 2.28930300 -0.61731900 -1.16579200
O 1.99268900 1.73263000 -0.22297700
F -0.10204300 0.26935400 2.36938500
F -0.56882600 2.01549100 1.17725700
F -1.96439000 0.37267300 1.27164700
H 1.58600500 1.96357800 -1.07088800
11
energy = -1124.57463454
C -0.73391600 0.59165400 1.37576300
C -0.02091600 0.05133400 0.11393100
F -0.32921800 -1.23905700 -0.03611400
F -0.44359900 0.73447000 -0.96178400
S 1.89325500 0.13738200 0.17088400
O 2.26773800 -0.48019400 -1.10239800
O 1.96062600 1.76967800 0.05681300
F -0.18715100 0.03852200 2.45997200
F -0.61460800 1.91103800 1.46054900
F -2.02606900 0.28311800 1.34513700
H 1.56602000 2.08300200 -0.77012100
11
energy = -1124.5713185400002
C -0.65706100 0.73557600 1.19885300
C 0.00011300 0.00036600 0.00025900
F -0.32241600 -1.30102500 0.07278900
F -0.44885600 0.49871700 -1.14533300
S 1.90465900 0.00058000 0.00051700
O 2.26148000 -0.50708000 -1.32160500
O 1.90698300 1.66129300 -0.00184200
F 0.03278400 0.46046100 2.31261200
F -0.67797400 2.04486700 1.01804800
F -1.90630800 0.30980100 1.36326500
H 2.77618800 1.97540900 0.26833700
