%mem=28GB
%nprocshared=8
#P wb97xd/6-311++G(d,p) ! ASE formatted method and basis
Symm(None)
scf(xqc)
pop(None)
freq
opt(CalcFC, Tight)

Gaussian input prepared by ASE

0 1
C                -0.6566755217        0.6699287070       -1.2365571995
C                 0.0000000000        0.0000000000        0.0000000000
F                -0.3228747558        0.7138114842        1.0904710915
F                -0.4489871085       -1.2412544645        0.1414081105
S                 1.9044404701        0.0000000000        0.0000000000
O                 2.2611505430       -0.5059700231       -1.3228736569
O                 1.9065825857        1.6607334070        0.0000000000
F                 0.0342982683        1.7709330344       -1.5564930589
F                -0.6786914452       -0.1424130145       -2.2791024326
F                -1.9054493084        1.0269763551       -0.9501203836
H                 2.7757980919        1.9745892916        0.2704515343


