%mem=28GB
%nprocshared=8
#P wb97xd/6-311++G(d,p) ! ASE formatted method and basis
Symm(None)
scf(xqc)
pop(None)
freq
opt(CalcFC, Tight)

Gaussian input prepared by ASE

0 2
C                -0.7308350000        0.2959810000        1.3462380000
C                -0.0606010000       -0.0314280000       -0.0199660000
F                -0.3533120000       -1.2855550000       -0.3644130000
F                -0.5200200000        0.8056630000       -0.9470050000
S                 1.8069530000        0.1126900000       -0.0068100000
O                 2.2914390000       -0.6106320000        1.1358720000
O                 2.2248960000       -0.3887380000       -1.3354440000
O                 2.1205050000        1.5563940000       -0.0677430000
F                -0.4629380000       -0.6472620000        2.2344100000
F                -0.2879790000        1.4652970000        1.7985040000
F                -2.0446720000        0.3683480000        1.1738180000


