%mem=28GB
%nprocshared=8
#P wb97xd/6-311++G(d,p) ! ASE formatted method and basis
Symm(None)
scf(xqc)
pop(None)
freq
opt(CalcFC, Tight)

Gaussian input prepared by ASE

0 1
C                -1.2424550659       -0.4331514769        0.3131645089
C                -1.2152580240        1.0165348154        0.8647040534
F                -2.4634172706        1.4474808925        1.0261540681
F                -0.5755128410        1.0151517517        2.0392487718
S                -0.2343027972        2.1713736602       -0.3077895721
O                 0.9656734254        0.0000000000        0.0000000000
O                -0.2669513370        3.4717430238        0.3571766762
O                 1.2422391943        1.3943354574        0.0000000000
F                -2.0147898355       -0.5194979067       -0.7575202504
F                -0.0002251293       -0.8003469938       -0.0163148397
F                -1.6993822220       -1.2632819082        1.2437910601
H                 0.0000000000        0.0000000000        0.0000000000


