%mem=28GB
%nprocshared=8
#P wb97xd/6-311++G(d,p) ! ASE formatted method and basis
Symm(None)
scf(xqc)
pop(None)
freq
opt(CalcFC, Tight)

Gaussian input prepared by ASE

0 1
C                -0.6587158030       -1.3517399034        0.3507471250
C                 0.0000000000        0.0000000000        0.0000000000
F                -0.4495483322        0.4615877563       -1.1394029001
F                -0.4690183580        0.9390504369        0.9893863322
S                 1.9504085507        0.0000000000        0.0000000000
O                 0.5768144721        1.1416826191        2.2242790822
O                 2.2501862221       -0.4194511499       -1.3604472062
O                 2.0441409861        1.6315803765        0.0000000000
F                -0.3144764632       -2.2406557927       -0.5734074621
F                -0.2343415799       -1.7683658688        1.5359767742
F                -1.9812987007       -1.2396849951        0.3743055265
H                 2.9633179003        1.8643939183       -0.2342349772


