%mem=28GB
%nprocshared=8
#P wb97xd/6-311++G(d,p) ! ASE formatted method and basis
Symm(None)
scf(xqc)
pop(None)
opt(NoFreeze,TS,CalcAll,NoEigentest,MaxCycle=999)

Gaussian input prepared by ASE

0 1
C                -0.3619457924       -1.3429283528        0.1359596752
C                 0.0000000000        0.0000000000        0.0000000000
F                -0.2587332076        0.6369399435       -1.1235553556
F                -0.2668580854        0.8375301788        0.9925584662
S                 2.4025294927        0.0000000000        0.0000000000
O                 2.9016925325       -0.4043226858        1.2895797576
O                 2.6723954004       -0.4183216143       -1.3416003896
O                 2.9257332814        1.5732142586        0.0000000000
F                -0.4879410857       -1.9506689596        1.2495141311
F                 1.7020484602       -1.7400823255        0.1761680192
F                -0.4839882588       -2.1661117443       -0.8277477881
H                 2.3951936709        2.2332438858       -0.4643643946


