%mem=28GB
%nprocshared=8
#P wb97xd/6-311++G(d,p) ! ASE formatted method and basis
Symm(None)
scf(xqc)
pop(None)
opt(NoFreeze,TS,CalcAll,NoEigentest,MaxCycle=999)

Gaussian input prepared by ASE

0 1
C                -0.3117230638        1.3665637232       -0.1974845936
C                 0.0000000000        0.0000000000        0.0000000000
F                -0.3917829875       -0.5573269881        1.1374575469
F                -0.3247624008       -0.8571637250       -0.9538509259
S                 2.3019423409        0.0000000000        0.0000000000
O                 2.2626215687       -0.5546069721        1.3277025395
O                 2.2343751582       -0.5280069053       -1.3366411513
O                 3.7131618047        0.7712254494        0.0000000000
F                 1.5845252240        1.8416416209        0.0909116065
F                -0.3382446940        1.9505010083       -1.3344684856
F                -0.6478842862        2.1861979049        0.7213514992
H                 3.8859003654        1.4900759394       -0.6219553945


