12
energy = -1199.64140982
C -0.66700900 0.38902500 1.37182800
C 0.11471500 0.20040400 0.04566400
F 0.52136300 -1.68817600 0.14848300
F -0.60469900 0.29068100 -1.00222100
S 1.79574100 -0.15696300 -0.12593500
O 2.57097500 -0.29332600 1.05899800
O 2.22280200 -0.38070500 -1.46023300
O 1.28220800 1.68396400 -0.11733500
F -1.62956100 -0.50537800 1.44172500
F 0.12902800 0.29088100 2.41786100
F -1.20947800 1.60596100 1.35165100
H 1.52433800 2.16166200 0.68780400
