%mem=28GB
%nprocshared=8
#P wb97xd/6-311++G(d,p) ! ASE formatted method and basis
Symm(None)
scf(xqc)
pop(None)
opt(NoFreeze,TS,CalcAll,NoEigentest,MaxCycle=999)

Gaussian input prepared by ASE

0 1
C                -0.6046351685       -1.3826178960       -0.3265368807
C                 0.0000000000        0.0000000000        0.0000000000
F                -0.4922516176        0.9334708917       -0.7969700373
F                -0.2676588391        0.3149254980        1.2818158340
S                 1.9277442911        0.0000000000        0.0000000000
O                 1.4063423293        0.9385469401        2.4538808218
O                 2.3880812776       -0.4952349669       -1.2860042035
O                 2.0630947710        1.6079059275        0.0000000000
F                -0.4651962502       -1.6458696697       -1.6151946800
F                 0.0289369469       -2.3142502039        0.3852769869
F                -1.8958148873       -1.4082642237       -0.0153930235
H                 1.2984430828        1.9129985975       -0.5366510916


