%mem=28GB
%nprocshared=8
#P wb97xd/6-311++G(d,p) ! ASE formatted method and basis
Symm(None)
scf(xqc)
pop(None)
opt(NoFreeze,TS,CalcAll,NoEigentest,MaxCycle=999)

Gaussian input prepared by ASE

0 1
C                -0.5795058345       -1.4287697543       -0.0814385945
C                 0.0000000000        0.0000000000        0.0000000000
F                -0.5162523893        0.7815101626       -0.9335770657
F                -0.3791103212        0.5936534297        1.1479207837
S                 1.9277442912        0.0000000000        0.0000000000
O                 1.2891451616        0.8534311974        2.4572561519
O                 2.3464875820       -0.2691692620       -1.3649822673
O                 2.1598311866        1.5968146095        0.0000000000
F                -0.5033645735       -1.9556683381       -1.2922086078
F                 0.0462865142       -2.2864613500        0.7240304803
F                -1.8600908238       -1.4997361230        0.2645081682
H                 1.7938660767        2.0787970444       -0.7742936177


