%mem=28GB
%nprocshared=8
#P wb97xd/6-311++G(d,p) ! ASE formatted method and basis
Symm(None)
scf(xqc)
pop(None)
freq
opt(CalcFC, Tight)

Gaussian input prepared by ASE

0 1
C                -0.0044747289        0.8731527805       -2.6058569942
C                 1.4887556831        0.4801949942       -2.4562808954
F                 1.5707292100       -0.7848130051       -2.0528986499
F                 2.0892091672        0.6225146147       -3.6428860726
S                 2.3805687083        1.6527151520       -1.2313183555
O                 0.9656734254        0.0000000000        0.0000000000
O                 2.2024124537        2.9819459010       -1.8106390656
O                 1.2422391943        1.3943354574        0.0000000000
F                -0.6841036400        0.5830628044       -1.5084623957
F                -0.0912331075        2.1868990197       -2.8362223710
F                -0.5429670717        0.2242379452       -3.6319662819
H                 0.0000000000        0.0000000000        0.0000000000


