12
energy = -1199.60656757
C -0.04580100 -0.77310700 1.32070700
C -0.06189000 -0.09338200 -0.08131700
F -0.66340300 -0.74284800 -1.03782600
F -0.62984100 1.11805500 0.02794900
S 1.80157900 0.05306500 -0.09437000
O 1.85424000 -0.14357900 1.40077500
O 2.68076700 -0.40283100 -1.11572300
O 1.96111700 1.65910100 -0.22177300
F 1.13174600 -1.94676800 0.12182300
F -0.29439000 0.03194400 2.31337100
F -0.60066900 -1.88658700 1.58864200
H 1.66803700 2.10091600 0.58410200
12
energy = -1199.60656192
C 0.00237400 -0.78294000 1.34069300
C 0.04804100 0.01551800 0.00334300
F -0.61904700 -0.48459200 -0.99832300
F -0.39508100 1.26313000 0.22452100
S 1.91670200 -0.02330400 -0.02020800
O 1.95455200 -0.35410300 1.45168000
O 2.74220800 -0.47358800 -1.08771100
O 2.23624100 1.56364000 -0.00971900
F 1.05102800 -1.95812600 0.03078500
F -0.16160500 -0.04666800 2.40225500
F -0.66048100 -1.85479700 1.51844400
H 1.99205200 1.96020000 0.83504800
12
energy = -1199.60782573
C -0.07609300 -0.77951600 1.34931500
C -0.00009300 -0.00005600 0.00009200
F -0.62861700 -0.55898200 -1.00266800
F -0.50786400 1.21851500 0.18584900
S 1.87021900 -0.00015100 -0.00004700
O 1.94829300 -0.26688800 1.46348900
O 2.74107000 -0.41102300 -1.06458400
O 2.05557300 1.62157900 -0.00075800
F 1.12042400 -1.92008000 0.03375000
F -0.24470300 -0.06640800 2.40373400
F -0.66236100 -1.89084900 1.50078300
H 2.59936200 1.86582700 -0.75835900
