%mem=28GB
%nprocshared=8
#P wb97xd/6-311++G(d,p) ! ASE formatted method and basis
Symm(None)
scf(xqc)
pop(None)
opt(NoFreeze,TS,CalcAll,NoEigentest,MaxCycle=999)

Gaussian input prepared by ASE

0 1
C                -0.2493300000        0.4452500000        0.3970010000
C                 1.7115460000       -0.2929970000       -0.5464850000
F                 2.5581550000       -1.1331570000        0.0509580000
F                 1.8741990000       -0.4537940000       -1.8658430000
S                 2.2888220000        1.5043980000       -0.0905190000
O                 0.9390180000        1.8689080000        0.4693360000
O                 3.4414790000        1.7519550000        0.7437170000
O                 2.3277460000        2.4280000000       -1.4134930000
F                -1.1086570000        1.2649670000        0.9839240000
F                -0.7786770000        0.1504860000       -0.7647370000
F                -0.0804190000       -0.5480770000        1.2351840000
H                 3.2301280000        2.4691200000       -1.7564580000


