%mem=28GB
%nprocshared=8
#P wb97xd/6-311++G(d,p) ! ASE formatted method and basis
Symm(None)
scf(xqc)
pop(None)
opt(NoFreeze,TS,CalcAll,NoEigentest,MaxCycle=999)

Gaussian input prepared by ASE

0 1
C                -0.3548439175       -1.3350149912        0.2115826939
C                 0.0000000000        0.0000000000        0.0000000000
F                -0.2345700111        0.5708161413       -1.1636829604
F                -0.2853978728        0.8914332933        0.9390086685
S                 2.4025295115        0.0000000000        0.0000000000
O                 3.1437601865       -0.4786882091        1.1388994943
O                 2.3941383186       -0.3909646567       -1.3765133251
O                 2.9445218890        1.5668408304        0.0000000000
F                -0.5556748959       -1.8619929625        1.3549060301
F                 1.6977450993       -1.6678858873        0.5206064851
F                -0.3865566851       -2.2302103217       -0.6933356110
H                 3.1961778150        1.9612933188        0.8448802821


