%mem=28GB
%nprocshared=8
#P wb97xd/6-311++G(d,p) ! ASE formatted method and basis
Symm(None)
scf(xqc)
pop(None)
freq
opt(CalcFC, Tight)

Gaussian input prepared by ASE

0 1
C                -2.6804618371        1.5028746481        1.0169448089
C                -1.2152580240        1.0165348154        0.8647040534
F                -0.6456978745        0.9587016139        2.0655115694
F                -1.2238592770       -0.1971372097        0.3027811571
S                -0.2343027972        2.1713736602       -0.3077895721
O                 0.9656734254        0.0000000000        0.0000000000
O                -0.2669513370        3.4717430238        0.3571766762
O                 1.2422391943        1.3943354574        0.0000000000
F                -2.7394114235        2.6179703072        1.7264581444
F                -3.1948274004        1.7314542090       -0.1953686225
F                -3.4075357316        0.5685806985        1.6189606761
H                 0.0000000000        0.0000000000        0.0000000000


