%mem=28GB
%nprocshared=8
#P wb97xd/6-311++G(d,p) ! ASE formatted method and basis
Symm(None)
scf(xqc)
pop(None)
freq
opt(CalcFC, Tight)

Gaussian input prepared by ASE

0 1
C                 3.5337347325       -1.7157097636       -1.1588946540
C                 1.3503946837        0.0000000000        0.0000000000
F                 0.0000000000        0.0000000000        0.0000000000
F                 1.7722704782       -0.6752161935        1.0514946879
S                 1.8879906000       -0.8874842606       -1.5977116819
O                 2.1710848709        0.0738577697       -2.6309431466
O                 0.8995067356       -1.9399892898       -1.7432589724
O                 1.8736011381        1.2231899023        0.0000000000
F                 4.0651871545       -2.1409415312       -2.2895525494
F                 4.3318461125       -0.8245928489       -0.5944189220
F                 3.3431207687       -2.7332502507       -0.3440469012
H                 1.7510865697        1.6352502837       -0.8669604178


