%mem=28GB
%nprocshared=8
#P am1 
Symm(None)
scf(xqc)
pop(None)
force

Gaussian input prepared by ASE

0 1
C                -0.2446281309       -0.3479142075        1.1151646952
C                -0.3705810152        0.5276693186       -0.1698210795
F                -1.0420284983        0.0583709135       -1.1905388149
F                -0.7138176735        1.8131576575       -0.0862759562
S                 1.3136203902       -0.0117779476        0.4391561594
O                 1.1199291850        1.2313350396        1.2368643209
O                 2.2697327590       -0.9978870644        0.8560607225
O                 2.2025059426        0.6631537170       -0.7517470751
F                 1.1352272549        0.6073391227        2.3984945997
F                -0.8168043493        0.1098333233        2.1697092779
F                -0.7123635811       -1.5186697491        1.0036825412
H                 1.9096297167        1.4634158764       -1.2024563913


