%mem=28GB
%nprocshared=8
#P wb97xd/6-311++G(d,p) ! ASE formatted method and basis
Symm(None)
scf(xqc)
pop(None)
freq
opt(CalcFC, Tight)

Gaussian input prepared by ASE

0 1
C                -0.6563597708        4.9753255806        0.0732979473
C                 0.3934545078        3.8635767078        0.3348898412
F                 1.5418204271        4.1996743267       -0.2464673980
F                 0.5669529220        3.7415922841        1.6554386696
S                -0.2343027972        2.1713736602       -0.3077895721
O                 0.9656734254        0.0000000000        0.0000000000
O                -0.4069769465        2.3732456796       -1.7443263263
O                 1.2422391943        1.3943354574        0.0000000000
F                -0.7358882235        5.2594223417       -1.2163868249
F                -1.8521625970        4.5586677927        0.5010552298
F                -0.3256862447        6.0761219200        0.7387806106
H                 0.0000000000        0.0000000000        0.0000000000


