%mem=28GB
%nprocshared=8
#P am1 
Symm(None)
scf(xqc)
pop(None)
force

Gaussian input prepared by ASE

0 1
C                -0.9080465410       -0.3896281243        1.1049033366
C                 0.0802646468        0.3940126716        0.2144032711
F                -0.2477915149        0.3018228144       -1.0633764385
F                -0.0103462109        1.7142146524        0.4648579740
S                 1.9117954441       -0.0991541490        0.5586117510
O                 1.7561412211        2.4282893206        1.4315737912
O                 2.1209292151       -1.3946185657       -0.0650946190
O                 2.6143458139        0.8146704166       -0.5705600098
F                -1.0900791921       -1.6388006449        0.7101682836
F                -0.5090000503       -0.4680241074        2.3740161509
F                -2.1189076508        0.1543277240        1.1553087994
H                 2.4511168189        1.7809219918       -0.4965172904


