%mem=28GB
%nprocshared=8
#P wb97xd/6-311++G(d,p) ! ASE formatted method and basis
Symm(None)
scf(xqc)
pop(None)
freq
opt(CalcFC, Tight)

Gaussian input prepared by ASE

0 1
C                 3.8592268588        0.1067894248        0.3316902785
C                 2.9578469336        0.1888014497        1.5915768420
F                 2.2167272223       -0.9129464008        1.6726655639
F                 3.7404476101        0.2949922620        2.6709705607
S                 1.8576487965        1.7564360656        1.5391079276
O                 0.9656734254        0.0000000000        0.0000000000
O                 2.8092387173        2.8615822028        1.4534623894
O                 1.2422391943        1.3943354574        0.0000000000
F                 3.1451995566       -0.1764776470       -0.7454574986
F                 4.4694454842        1.2822906097        0.1518164409
F                 4.7837933591       -0.8323224299        0.4966461753
H                 0.0000000000        0.0000000000        0.0000000000


