%mem=28GB
%nprocshared=8
#P wb97xd/6-311++G(d,p) ! ASE formatted method and basis
Symm(None)
scf(xqc)
pop(None)
freq
opt(CalcFC, Tight)

Gaussian input prepared by ASE

0 1
C                -0.6084082914        0.3986208184        2.0494081841
C                 0.1273052936        1.7283033284        2.3611706548
F                -0.6168192458        2.7490931335        1.9440987460
F                 0.3194321289        1.8110370964        3.6821829599
S                 1.8576487965        1.7564360656        1.5391079276
O                 0.9656734254        0.0000000000        0.0000000000
O                 2.5397307269        0.5905179350        2.0955301354
O                 1.2422391943        1.3943354574        0.0000000000
F                -0.9802682725        0.3477760319        0.7807642159
F                 0.2113417007       -0.6260878754        2.3033893791
F                -1.6841201124        0.2847511825        2.8200199677
H                 0.0000000000        0.0000000000        0.0000000000


