12
energy = 0
C 1.85055811 -0.06682918 -0.10017793
C 2.36994637 1.23325566 0.10882706
F 3.08121882 1.45170158 1.20622846
F 3.05118108 1.78521007 -0.88177752
S 0.47055535 2.49266443 0.43308295
O 0.63045982 2.29436886 1.84978280
O 0.99769679 3.42169750 -0.53075607
O -1.11631007 2.70313202 0.27851711
F 0.02695071 0.68270544 -0.23164217
F 1.69642517 -0.62281901 -1.24102712
F 1.50619749 -0.87306134 0.82743718
H -1.74195964 2.15753897 0.77278826
12
energy = 0
C 1.86590318 -0.06524122 -0.15419680
C 2.36539279 1.21882431 0.17038551
F 3.00573301 1.35768222 1.32303456
F 3.10847676 1.83633191 -0.73324186
S 0.46040624 2.49338223 0.38361525
O 0.67053008 2.49840482 1.80760675
O 0.93966639 3.27593288 -0.72448690
O -1.13329218 2.67576316 0.26876053
F 0.01467791 0.62148617 -0.07674060
F 1.67540676 -0.49703992 -1.34233800
F 1.58116174 -0.97663230 0.69277010
H -1.73114269 2.22067074 0.87611445
12
energy = 0
C 1.87754113 -0.04902500 -0.20486249
C 2.36279988 1.20661315 0.23281849
F 2.93107344 1.25801919 1.42962237
F 3.16175549 1.88224340 -0.57664155
S 0.44949496 2.48261422 0.33293898
O 0.71234006 2.69602838 1.73197289
O 0.87471608 3.09487593 -0.89762544
O -1.14997232 2.63551933 0.26472245
F 0.02208147 0.56719186 0.08179959
F 1.64220635 -0.35409631 -1.42386518
F 1.65069864 -1.05465659 0.54767449
H -1.71181518 2.29423744 0.97272840
