%mem=28GB
%nprocshared=8
#P am1 
Symm(None)
scf(xqc)
pop(None)
force

Gaussian input prepared by ASE

0 1
C                -1.1165432324       -0.0499560083        1.0545024840
C                -0.3573633660        0.6121448900        0.0858876577
F                -0.4935223234        0.2860601007       -1.1830258342
F                -0.2645177023        1.9336988521        0.1380139934
S                 1.9101622770       -0.0366175192        0.5436897525
O                 2.3916530027        0.7497656168        1.6506788084
O                 2.4070546311       -1.1850637974       -0.1504869694
O                 1.9439846008        1.1064349620       -0.6567403303
F                -1.2827499974        0.3637784547        2.2488332969
F                 0.6764622759       -1.0138423694        1.5793592204
F                -1.6337268414       -1.2052473984        0.9163711945
H                 1.8695296754        2.0368762164       -0.4087862740


