%mem=28GB
%nprocshared=8
#P wb97xd/6-311++G(d,p) ! ASE formatted method and basis
Symm(None)
scf(xqc)
pop(None)
opt(NoFreeze,TS,CalcAll,NoEigentest,MaxCycle=999)

Gaussian input prepared by ASE

0 1
C                -0.8174775245       -1.3064133057       -0.1176747165
C                 0.0000000000        0.0000000000        0.0000000000
F                -0.3258322361        0.8191351932       -1.0093232547
F                -0.3123019984        0.6014452818        1.1562566690
S                 2.0418452208        0.0000000000        0.0000000000
O                 1.9521805276       -0.5144889963        1.4552813225
O                 3.5347191390       -0.2666039325        0.5773745364
O                 2.0539661386        1.6213074631        0.0000000000
F                -0.6437603260       -1.8614724299       -1.3112121665
F                -0.4485049061       -2.1737207604        0.8200656470
F                -2.1170804296       -1.0445938239        0.0384119464
H                 1.9724113398        1.9354252973       -0.9095585175


