12
energy = -1199.5591080700003
C 2.49528800 -0.00133800 -2.55643600
C 2.69424400 -0.49863500 -1.16493000
F -0.37548000 -1.22243700 -0.52005900
F 3.10819900 -1.77844500 -1.09308800
S 1.72739200 -0.01531300 0.07568700
O 0.01464400 0.08538000 -0.18332500
O 1.95858300 -0.65750800 1.32802000
O 1.77364000 1.55814400 0.19367800
F 2.04648500 1.28849200 -2.52118800
F 3.63924700 -0.01265500 -3.23374900
F 1.60562700 -0.69606100 -3.27148400
H 1.84732300 1.98749500 -0.67413700
12
energy = -1199.55921349
C 2.58797600 0.04758700 -2.58346600
C 2.72033400 -0.55577600 -1.21677900
F -0.57050800 -0.93949500 -0.07060700
F 3.05964400 -1.85471000 -1.23117700
S 1.83263500 -0.10533500 0.07522700
O 0.10627500 0.28202200 -0.04129200
O 1.98416800 -0.91155200 1.24895300
O 2.11162400 1.44567900 0.20787100
F 2.08473900 1.28425500 -2.53119900
F 3.78150200 0.10289500 -3.18142300
F 1.78960300 -0.68619200 -3.37338800
H 1.36048400 1.90659400 0.61225100
12
energy = -1199.5596630800003
C 2.56331100 0.00426700 -2.59288600
C 2.76367500 -0.48996800 -1.18982200
F -0.44063300 -1.07547100 -0.32403500
F 3.13412400 -1.78366400 -1.14006800
S 1.77122500 -0.03187600 0.05087800
O 0.07061400 0.22130300 -0.16857400
O 1.95977300 -0.77064900 1.26090900
O 1.87861100 1.54287700 0.15709600
F 2.20070200 1.29680200 -2.59880000
F 3.70381400 -0.11399000 -3.27667800
F 1.62811400 -0.67931100 -3.26685200
H 2.78568400 1.81664700 -0.03611600
12
energy = -1199.5627230700002
C 2.54239100 0.04477400 -2.58814600
C 2.58193600 -0.55102000 -1.22014000
F -0.65347100 0.62432400 0.73778800
F 2.79253400 -1.87979900 -1.20209200
S 1.79011400 0.04444700 0.07737800
O 0.16577800 0.02389400 -0.29112700
O 2.02063600 -0.57806200 1.33606600
O 2.02215800 1.60087100 0.17221300
F 2.17150000 1.34906500 -2.53261100
F 3.73926400 -0.00929700 -3.17085100
F 1.68232000 -0.57494600 -3.40147100
H 1.68003200 2.07757700 -0.59913300
12
energy = -1199.56406277
C 2.55323100 0.08558100 -2.56569800
C 2.56454900 -0.58143600 -1.22407000
F -0.44805400 0.95468500 0.83658900
F 2.83207500 -1.89480300 -1.25349700
S 1.83105600 -0.05714900 0.12152500
O 0.18789200 0.14892800 -0.19791700
O 1.98336000 -0.83600600 1.30908200
O 2.21387700 1.46783600 0.25881500
F 2.12092600 1.34669800 -2.48924200
F 3.78256300 0.09459500 -3.09140600
F 1.76604700 -0.57070200 -3.42801900
H 1.46095400 1.99245400 0.57769600
12
energy = -1199.5625254400002
C 2.57543700 0.04978300 -2.63220100
C 2.62829200 -0.50821300 -1.23974200
F -0.58919200 0.64424400 0.83170200
F 2.84847600 -1.83632300 -1.20947100
S 1.79014900 0.06025300 0.04530600
O 0.15949800 0.09243300 -0.25908300
O 2.03025400 -0.59083100 1.29470500
O 1.96076100 1.63285000 0.05752200
F 2.39965500 1.37503800 -2.63266300
F 3.72749100 -0.22022800 -3.25497800
F 1.59674800 -0.49118000 -3.37093300
H 2.89144500 1.86385100 0.18377200
12
energy = -1199.56208351
C 2.68975800 0.01297600 -2.69553700
C 2.62888600 -0.53129200 -1.29439000
F -0.43894000 0.63984100 -1.29757800
F 2.87370100 -1.85041900 -1.23693700
S 1.71812500 0.02629700 -0.07009300
O -0.04943900 0.09230200 -0.05196000
O 1.86612100 -0.62857800 1.19420300
O 1.94948600 1.58649000 -0.13738300
F 2.35804700 1.30065600 -2.76713500
F 3.93285800 -0.12820700 -3.16701400
F 1.87949300 -0.66726300 -3.51960900
H 1.12709700 2.06476700 0.04315400
12
energy = -1199.5620904700002
C 2.66431000 0.09685500 -2.60144800
C 2.62277100 -0.55664300 -1.24705700
F -0.38994100 0.73404200 -1.05246300
F 2.81174700 -1.88500600 -1.30390700
S 1.77475800 -0.06459600 0.04820800
O 0.01304100 0.07107600 0.13124500
O 1.93294100 -0.82625400 1.24988800
O 2.07084100 1.48523900 0.09896700
F 2.39086200 1.39939900 -2.55816200
F 3.88397600 -0.05998300 -3.12610500
F 1.79758900 -0.47770100 -3.44826400
H 1.27558200 1.97999600 0.34480200
12
energy = -1199.56144708
C 2.66847400 0.07725000 -2.62470700
C 2.64904000 -0.51084000 -1.24311200
F -0.41471200 0.54271900 -1.23143600
F 2.86703400 -1.84137400 -1.24247900
S 1.70988400 -0.00018500 0.00016200
O -0.00000800 -0.00016900 0.00054500
O 1.91082600 -0.67986000 1.24250800
O 1.81648000 1.57659000 0.00035200
F 2.56160700 1.41548500 -2.59539800
F 3.83042000 -0.23138900 -3.20684600
F 1.69656600 -0.38708000 -3.41896700
H 2.72340400 1.85627200 -0.18483900
