12
energy = -1199.54938126
C -0.60403400 -1.36060400 -0.28224500
C 0.07950100 0.01155700 -0.09819700
F -0.41777800 0.90605100 -0.93569500
F -0.09694500 0.43284800 1.16861800
S 2.00225200 -0.08042700 -0.20681400
O 1.67149500 1.04729300 2.19934700
O 2.36345500 -0.67981000 -1.48004600
O 2.20694100 1.51575400 -0.32240600
F -0.55539300 -1.72558400 -1.55260300
F 0.03022900 -2.26632100 0.46168000
F -1.87367400 -1.30029900 0.10375600
H 2.22131300 1.82307900 0.61176900
12
energy = -1199.5444410300001
C -0.58188600 -1.38093900 -0.28642700
C -0.03371100 0.02783500 0.03367300
F -0.55106000 0.92355400 -0.81041400
F -0.36006600 0.35882200 1.29264000
S 1.87848300 0.12962400 0.03023600
O 1.35068600 0.48003300 2.68627600
O 2.32568600 -0.48063700 -1.22077500
O 1.92209600 1.74856500 -0.08937000
F -0.43613500 -1.65023500 -1.57410600
F 0.08538000 -2.28236000 0.43187000
F -1.87168300 -1.45282000 0.02606000
H 1.65929500 2.04016700 -0.97544000
12
energy = -1199.5494767399998
C -0.60475900 -1.38286300 -0.32553600
C -0.00032000 0.00060700 -0.00212100
F -0.49195900 0.93228300 -0.80155100
F -0.26847100 0.31822700 1.27877800
S 1.92732300 0.00052000 -0.00147000
O 1.40691900 0.93518100 2.45375000
O 2.38791300 -0.49156000 -1.28872500
O 2.06294100 1.60835400 0.00302800
F -0.46602300 -1.64894400 -1.61368600
F 0.02956200 -2.31275000 0.38793600
F -1.89572000 -1.40819700 -0.01354400
H 2.01372400 1.85064400 0.95437800
12
energy = -1199.54948762
C -0.59355200 -1.31327200 -0.45507200
C 0.07816800 0.03667900 -0.12271000
F -0.40890000 1.00774100 -0.87677900
F -0.12448900 0.32952000 1.17604100
S 2.00280100 -0.03665000 -0.20306600
O 1.62015500 0.84895300 2.29655600
O 2.39095200 -0.50859500 -1.52124100
O 2.20071000 1.56418900 -0.16096400
F -0.51934200 -1.54986100 -1.75425100
F 0.03235100 -2.28585600 0.20705400
F -1.87041200 -1.29697500 -0.08904500
H 2.19950400 1.78102600 0.79782100
12
energy = -1199.54440449
C -0.57345700 -1.32083500 -0.45624400
C -0.00721100 0.05828600 -0.05029200
F -0.49353700 1.00759800 -0.85317700
F -0.35072200 0.32644500 1.21901900
S 1.90640400 0.12509600 -0.01438900
O 1.33645300 0.35760600 2.64406700
O 2.36702200 -0.42966000 -1.28624100
O 1.98095000 1.74680900 -0.05144600
F -0.40782500 -1.52271500 -1.75380900
F 0.06429900 -2.27177500 0.22400500
F -1.87004800 -1.38590500 -0.17156000
H 1.74167200 2.08708600 -0.92676000
12
energy = -1199.54937493
C -0.60251700 -1.35633200 -0.48167900
C -0.03760000 0.02194900 -0.07549800
F -0.55354700 0.98486500 -0.82077900
F -0.31694000 0.25673900 1.22082200
S 1.88956100 0.07521300 -0.06798700
O 1.33646300 0.86061300 2.43248600
O 2.36648300 -0.33306500 -1.37828300
O 1.98021200 1.68347200 0.02446600
F -0.45304000 -1.54236000 -1.78259500
F 0.05555900 -2.30856000 0.17881700
F -1.89309700 -1.43563500 -0.17720100
H 1.91927300 1.87162400 0.98735500
12
energy = -1199.54941837
C -0.58494100 -1.36439500 -0.29471400
C 0.07544700 0.01003100 -0.05208400
F -0.43637200 0.93040600 -0.85195500
F -0.10886400 0.37534700 1.23099300
S 1.99940600 -0.04618300 -0.16090300
O 1.64545100 0.99415400 2.28275200
O 2.37215600 -0.59929900 -1.45164300
O 2.17811400 1.55601800 -0.22719900
F -0.53215600 -1.67291100 -1.57975300
F 0.06575700 -2.29060100 0.40869400
F -1.85482000 -1.34262200 0.09465000
H 2.18888000 1.83516600 0.71505400
12
energy = -1199.54442533
C -0.56559200 -1.36374700 -0.29980200
C -0.00478500 0.04300200 0.00707300
F -0.50577800 0.93355900 -0.85219000
F -0.33742700 0.39318700 1.25920500
S 1.90834000 0.12432000 0.01775600
O 1.36336500 0.51255400 2.66453400
O 2.35877500 -0.50599100 -1.22212300
O 1.97036900 1.74112500 -0.12122500
F -0.41256600 -1.65084300 -1.58278300
F 0.08619700 -2.26311500 0.43509000
F -1.85852700 -1.41784900 0.00315500
H 1.71818800 2.02454500 -1.01301700
12
energy = -1199.5495253600002
C -0.59884300 -1.41122100 -0.32057000
C -0.04150700 -0.00359800 -0.01752400
F -0.56981500 0.90034600 -0.82536000
F -0.31373800 0.32027200 1.26099500
S 1.88499300 0.06394800 -0.02817400
O 1.34535300 1.00898800 2.41864500
O 2.35562200 -0.42686600 -1.31227800
O 1.96378800 1.67549700 -0.04328100
F -0.45641500 -1.68878600 -1.60590400
F 0.07048200 -2.30931500 0.40157700
F -1.88679900 -1.47737900 -0.00222500
H 1.90983800 1.92716600 0.90542000
12
energy = -1199.54952132
C -0.58089400 -1.39530800 -0.13040200
C 0.07723400 -0.00488500 0.00173700
F -0.43447700 0.84741300 -0.87037300
F -0.10978300 0.46170900 1.25109200
S 2.00148800 -0.06583500 -0.10035000
O 1.64437200 1.15072700 2.25930200
O 2.37617900 -0.70962900 -1.34785600
O 2.17709600 1.52784400 -0.28122600
F -0.52246700 -1.80800500 -1.38563500
F 0.06775400 -2.26000400 0.64909000
F -1.85240000 -1.34325100 0.25067200
H 2.18501900 1.87408600 0.63892900
12
energy = -1199.5444329500003
C -0.55209400 -1.39918100 -0.13388800
C -0.00650800 0.03195800 0.07040000
F -0.52027400 0.85331500 -0.84818200
F -0.33955600 0.46651100 1.29565400
S 1.90591000 0.13530000 0.06864200
O 1.36483400 0.73569600 2.67405600
O 2.36086500 -0.58505300 -1.11946100
O 1.95000200 1.73665700 -0.19651900
F -0.39821700 -1.77526300 -1.39353900
F 0.11080700 -2.23671000 0.66164100
F -1.84384500 -1.44561900 0.17546000
H 1.69311300 1.94679100 -1.10704800
12
energy = -1199.54935581
C -0.59215500 -1.44961600 -0.14884300
C -0.03866900 -0.02126400 0.04455200
F -0.57038700 0.81640800 -0.82974900
F -0.31062500 0.39892000 1.29471100
S 1.88758400 0.05096800 0.02609900
O 1.34862700 1.17695600 2.39643600
O 2.35809800 -0.53207200 -1.21873200
O 1.96126200 1.65717800 -0.10783400
F -0.44941200 -1.82525800 -1.40896900
F 0.07981400 -2.28752900 0.64010800
F -1.87983600 -1.49439400 0.17432000
H 1.90764700 1.97746000 0.82023400
