%mem=28GB
%nprocshared=8
#P wb97xd/6-311++G(d,p) ! ASE formatted method and basis
Symm(None)
scf(xqc)
pop(None)
freq
opt(CalcFC, Tight)

Gaussian input prepared by ASE

0 1
C                 0.2478321054        1.8637972151        3.9018330412
C                 0.1273052936        1.7283033284        2.3611706548
F                -0.5223534269        0.6046559108        2.0695507628
F                -0.5474578925        2.7829236156        1.8907434023
S                 1.8576487965        1.7564360656        1.5391079276
O                 0.9656734254        0.0000000000        0.0000000000
O                 2.5397307269        0.5905179350        2.0955301354
O                 1.2422391943        1.3943354574        0.0000000000
F                 0.7502331230        0.7633455195        4.4374838970
F                 1.0504604977        2.8929885931        4.1900641555
F                -0.9481576669        2.0950254110        4.4310841375
H                 0.0000000000        0.0000000000        0.0000000000


