%mem=28GB
%nprocshared=8
#P wb97xd/6-311++G(d,p) ! ASE formatted method and basis
Symm(None)
scf(xqc)
pop(None)
freq
opt(CalcFC, Tight)

Gaussian input prepared by ASE

0 1
C                 3.8758002026        0.2024432189        2.8420573866
C                 2.9578469336        0.1888014497        1.5915768420
F                 3.7089085579        0.0949675178        0.4976007164
F                 2.1368907914       -0.8637403730        1.6753493407
S                 1.8576487965        1.7564360656        1.5391079276
O                 0.9656734254        0.0000000000        0.0000000000
O                 2.8092387173        2.8615822028        1.4534623894
O                 1.2422391943        1.3943354574        0.0000000000
F                 4.8238521485        1.1178006073        2.7252630579
F                 3.1393794230        0.4750673254        3.9236695797
F                 4.4419993107       -0.9883708102        3.0012593179
H                 0.0000000000        0.0000000000        0.0000000000


