%mem=28GB
%nprocshared=8
#P wb97xd/6-311++G(d,p) ! ASE formatted method and basis
Symm(None)
scf(xqc)
pop(None)
freq
opt(CalcFC, Tight)

Gaussian input prepared by ASE

0 1
C                 3.5183717685       -0.4199240260        0.3796059729
C                 3.8377611677        0.9923361864       -0.1772040473
F                 4.1054927219        1.8124248210        0.8354442528
F                 4.8984589171        0.9027893304       -0.9869773196
S                 2.3805687083        1.6527151520       -1.2313183555
O                 0.9656734254        0.0000000000        0.0000000000
O                 2.2171657382        0.6544985457       -2.2853912166
O                 1.2422391943        1.3943354574        0.0000000000
F                 2.5909496227       -0.3605733238        1.3212472069
F                 3.0774579663       -1.1945806612       -0.6163993085
F                 4.6171687537       -0.9651064401        0.8889055484
H                 0.0000000000        0.0000000000        0.0000000000


