12
energy = -1199.6597848400002
C -0.95162300 0.43697300 1.28256800
C 0.06410100 -0.07390900 0.22443500
F 0.24911000 -1.38755500 0.45769200
F -0.47310000 0.08031700 -0.99610300
S 2.38211000 0.33357300 -0.11082600
O 3.01122800 -0.56092200 0.80023400
O 2.46592700 0.19307500 -1.52510700
O 2.04977800 1.71064400 0.41712800
F -2.09211800 -0.23508900 1.22212500
F -0.42858500 0.29612500 2.49906500
F -1.20225100 1.73121400 1.07379300
H 0.97584500 1.07359200 0.47329000
