12
energy = -1199.77847607
C 0.02759600 -0.11005000 -0.06153900
C 1.56728300 0.12613600 -0.00040400
F 3.77083400 -0.93751900 0.95456400
F 2.11443500 -0.42335200 -1.09099100
S 2.28842100 -0.74654600 1.52668700
O 1.74793300 -2.04696100 1.74311500
O 2.37479600 0.26222900 2.54542700
O 1.88270700 1.43322100 0.06624800
F -0.26571800 -1.37915800 -0.29680900
F -0.51593900 0.25550700 1.10348600
F -0.48882800 0.63769200 -1.02690900
H 1.99806700 1.71672000 0.98371700
12
energy = -1199.7803476699999
C 0.03222700 0.05080400 0.00662300
C 1.58611900 0.02535500 -0.03341500
F 3.79572300 -0.33598000 1.22588300
F 1.97789300 -0.73399200 -1.08279200
S 2.27499600 -0.87819300 1.48814800
O 2.31340900 -2.28929000 1.29569600
O 1.82389700 -0.24015300 2.68197400
O 2.03631900 1.28320100 -0.09373900
F -0.43119900 -1.17338600 0.25175900
F -0.40361000 0.87339300 0.94657800
F -0.42453900 0.45442400 -1.17162400
H 3.00063600 1.30396700 -0.10282100
12
energy = -1199.77738196
C 0.03886400 -0.06976100 -0.03227700
C 1.59292400 0.05283400 -0.00084200
F 3.82270200 -0.69262700 1.07185700
F 2.06899500 -0.66440700 -1.04925600
S 2.29550100 -0.72843900 1.55213100
O 1.89958600 -2.09870100 1.59195800
O 2.18132600 0.16689000 2.65435700
O 2.01737000 1.32717000 -0.00822800
F -0.36189500 -1.29892900 -0.28777800
F -0.48716700 0.33764700 1.11640300
F -0.40759400 0.73939800 -1.00836600
H 1.55363100 1.83594400 -0.68326500
12
energy = -1199.77669934
C 0.03190000 -0.06825100 -0.06259500
C 1.58109500 0.07691200 0.03578100
F 1.96545400 0.30051700 2.60758100
F 2.12930300 -0.51232300 -1.03040300
S 2.28914200 -0.87646800 1.52938700
O 3.70811400 -0.92256200 1.39583200
O 1.48449000 -1.99566100 1.89967600
O 1.99397700 1.35785200 0.07381700
F -0.33715400 -1.32621600 -0.22007400
F -0.53022600 0.42549300 1.04575800
F -0.39780100 0.64068700 -1.10075800
H 1.62419700 1.82236400 0.83317000
12
energy = -1199.78152525
C -0.00019800 0.07268000 -0.01841600
C 1.55281200 0.01477700 -0.01724900
F 1.46595800 -0.16339100 2.63620100
F 1.94299000 -0.78479000 -1.04714900
S 2.31660900 -0.86309300 1.47326800
O 3.64510000 -0.32495400 1.55856100
O 2.02687100 -2.25662200 1.51206700
O 2.04064400 1.25468000 -0.10107300
F -0.50666100 -1.13259100 0.21892500
F -0.44386700 0.91785800 0.90026000
F -0.41021200 0.48182500 -1.21343100
H 2.99273000 1.25819800 0.07088300
12
energy = -1199.7774061100001
C 0.00842500 -0.07585700 -0.05191000
C 1.56039400 0.04501100 0.02967400
F 1.85627500 0.31206600 2.62377400
F 2.06578700 -0.66548700 -1.01503700
S 2.29172500 -0.78286100 1.54206600
O 3.71149600 -0.73092800 1.43856000
O 1.55510400 -1.97096800 1.82878600
O 1.98866900 1.31734300 0.04102100
F -0.38627000 -1.30463800 -0.31708100
F -0.56149100 0.34447400 1.06905200
F -0.39730100 0.72857200 -1.05219700
H 1.56233600 1.82471800 -0.65943500
12
energy = -1199.77668908
C 0.04395500 -0.12262400 -0.11002300
C 1.58549600 0.08773400 0.00191900
F 1.31306400 -2.00455700 1.72232500
F 2.15592500 -0.39791500 -1.09963400
S 2.36863300 -0.82280100 1.48397400
O 2.24320900 0.07212400 2.59844800
O 3.59592500 -1.43413800 1.09579400
O 1.92180900 1.38898700 0.13351100
F -0.26475500 -1.37720100 -0.39701800
F -0.53819800 0.22558600 1.04034300
F -0.42252700 0.66277900 -1.07308000
H 1.71736800 1.70973600 1.02140700
12
energy = -1199.78148904
C 0.00341300 0.08703600 0.00949300
C 1.55088500 -0.01706200 -0.03913400
F 2.15148300 -2.38439200 1.05478600
F 1.89741200 -0.80925800 -1.08181200
S 2.27960500 -0.85481900 1.49451400
O 1.46898300 -0.67967700 2.65462200
O 3.67461600 -0.52166400 1.44995100
O 2.07627200 1.21152300 -0.12118900
F -0.52343500 -1.11485200 0.22730800
F -0.38379800 0.91465700 0.96676200
F -0.43635300 0.53984000 -1.15903900
H 3.04110600 1.16860900 -0.07261900
12
energy = -1199.77717176
C 0.00028400 -0.00177000 -0.00135000
C 1.55823600 0.00031800 0.00037400
F 1.86259100 -2.30140000 1.17906400
F 1.95553200 -0.72493800 -1.07443200
S 2.32729800 -0.80365100 1.50793400
O 1.63332700 -0.40463000 2.68808500
O 3.74337600 -0.76635300 1.35977100
O 2.07226100 1.24549600 0.00133400
F -0.49932700 -1.22460600 -0.01240000
F -0.48341700 0.66542200 1.03421300
F -0.38825200 0.63304400 -1.12116900
H 1.65065400 1.78988100 -0.67335700
