%mem=28GB
%nprocshared=8
#P am1 
Symm(None)
scf(xqc)
pop(None)
force

Gaussian input prepared by ASE

0 1
C                -0.9659141681        0.3548079041        1.3551701495
C                -0.0163352564        0.3789250004        0.1263254222
F                 0.7771299034       -0.7059588317        0.0383306337
F                -0.6782988815        0.3989397662       -1.0413591034
S                 2.3245717153       -0.0011658424       -0.0388797352
O                 2.8119321279       -0.5147142705        1.1959032122
O                 2.7037116990       -0.5070790698       -1.3145209088
O                 2.0633121595        1.4877035532       -0.0161665009
F                -1.9580775579       -0.5204196891        1.2800835074
F                -0.3179842743        0.0856641286        2.4869918416
F                -1.5331671070        1.5502417687        1.5301648420
H                 0.8395416401        1.5910935824        0.2162506396


