12
energy = -1199.61273771
C -0.24933000 0.44525000 0.39700100
C 1.71154600 -0.29299700 -0.54648500
F 2.55815500 -1.13315700 0.05095800
F 1.87419900 -0.45379400 -1.86584300
S 2.28882200 1.50439800 -0.09051900
O 0.93901800 1.86890800 0.46933600
O 3.44147900 1.75195500 0.74371700
O 2.32774600 2.42800000 -1.41349300
F -1.10865700 1.26496700 0.98392400
F -0.77867700 0.15048600 -0.76473700
F -0.08041900 -0.54807700 1.23518400
H 3.23012800 2.46912000 -1.75645800
