12
energy = -1199.6120425899999
C 4.12866400 2.13044100 1.81347600
C 3.35135000 0.88215500 1.30193600
F 4.15778100 0.10703000 0.59452800
F 2.84741300 0.21630100 2.32457000
S 1.85256800 1.43067900 0.21183800
O -0.42555400 1.10987400 0.41981100
O 2.35001700 2.18144000 -0.93066400
O 1.26597500 0.07038800 0.02917100
F 4.76928100 2.72345400 0.82211100
F 3.27588200 2.98775900 2.36623600
F 5.00719600 1.74086600 2.72986400
H -1.33367500 1.02037500 0.08568000
12
energy = -1199.6120435700002
C 4.12944700 2.14951600 1.79502900
C 3.35399900 0.89027100 1.30812000
F 4.16011900 0.10553500 0.61103200
F 2.85607200 0.24057900 2.34401500
S 1.84923000 1.41535600 0.21467100
O -0.42693100 1.08957300 0.43479600
O 2.33965200 2.14920600 -0.94173200
O 1.26741500 0.04992500 0.05647300
F 4.76465900 2.72699300 0.79111200
F 3.27621500 3.01386500 2.33602000
F 5.01250400 1.77844900 2.71474900
H -1.33548200 0.99149300 0.10427100
