%mem=28GB
%nprocshared=8
#P wb97xd/6-311++G(d,p) ! ASE formatted method and basis
Symm(None)
scf(xqc)
pop(None)
opt(NoFreeze,TS,CalcAll,NoEigentest,MaxCycle=999)

Gaussian input prepared by ASE

0 1
C                -0.2368513619        1.0914352229        0.8696771981
C                 0.0000000000        0.0000000000        0.0000000000
F                -0.3278132525       -1.1986712562        0.4622149312
F                -0.3973772033        0.1848634402       -1.2481781616
S                 2.3019423407        0.0000000000        0.0000000000
O                 2.3418751576       -0.8990005080        1.1234467075
O                 2.2148795724       -0.3509786325       -1.3925517067
O                 3.6815723743        0.8264079130        0.0000000000
F                 1.6488963312        1.6794886622        0.8169729752
F                -0.6650610230        2.2220956672        0.4541510669
F                -0.3006249682        0.9196125897        2.1327980294
H                 3.7618034590        1.3134910680        0.8304975076


