%mem=28GB
%nprocshared=8
#P wb97xd/6-311++G(d,p) ! ASE formatted method and basis
Symm(None)
scf(xqc)
pop(None)
freq
opt(CalcFC, Tight)

Gaussian input prepared by ASE

0 1
C                 2.3416950000       -1.2618480000        1.8327630000
C                 3.0393500000        0.1346430000        1.7144620000
F                 3.6483820000        0.4469230000        2.8642350000
F                 3.9372620000        0.1217590000        0.7345090000
S                 1.7677800000        1.5218070000        1.3868050000
O                 0.1022890000        0.4031390000       -0.1764280000
O                 2.5810940000        2.7245110000        1.2147930000
O                 1.4247710000        0.9054340000       -0.1721190000
F                 2.0360890000       -1.5238870000        3.0999600000
F                 1.2073680000       -1.2351900000        1.1218010000
F                 3.1136630000       -2.2285480000        1.3681700000
H                -0.3503860000        1.0742500000       -0.7082240000


