%mem=28GB
%nprocshared=8
#P am1 
Symm(None)
scf(xqc)
pop(None)
force

Gaussian input prepared by ASE

0 1
C                -1.1336244934       -0.1211058091        1.0009377035
C                -0.3769658518        0.5786427195        0.0571336106
F                -0.4426777206        0.2526040018       -1.2173831192
F                -0.3434835275        1.9024515319        0.1223387010
S                 1.9000314412       -0.0204515599        0.5351685734
O                 2.7832323694        0.5830778352        1.5002415047
O                 1.9935717819       -1.2223873297       -0.2357486200
O                 1.8850604051        1.2067650455       -0.5794888613
F                -1.4670496671        0.3303705520        2.1455878091
F                 0.7124291137       -0.6571785311        1.8518974707
F                -1.4681110828       -1.3455420075        0.9002786992
H                 2.0080102320        2.1107855514       -0.2626664716


