12
energy = -1199.58948907
C -1.20099300 -0.61067900 1.22015300
C 0.20241200 0.90755900 0.57674900
F -0.31927200 -0.35182800 -0.29713800
F -0.10935000 1.92097500 -0.21025000
S 2.01753300 0.65167900 0.50763900
O 2.59579400 1.82117400 1.12158700
O 2.28480500 -0.68069800 0.96279100
O 2.37106600 0.67533900 -1.07101500
F -1.66754000 -1.74043100 0.77058000
F -0.52525500 -0.83442600 2.28989800
F -2.15002200 0.25706700 1.29513400
H 2.55124600 1.58230000 -1.34783900
