%mem=28GB
%nprocshared=8
#P wb97xd/6-311++G(d,p) ! ASE formatted method and basis
Symm(None)
scf(xqc)
pop(None)
opt(NoFreeze,TS,CalcAll,NoEigentest,MaxCycle=999)

Gaussian input prepared by ASE

0 1
C                -0.3531610108       -1.3450080239        0.1384812866
C                 0.0000000000        0.0000000000        0.0000000000
F                -0.2822457043        0.6353616892       -1.1187783014
F                -0.2593021502        0.8360362587        0.9958153021
S                 2.4025294927        0.0000000000        0.0000000000
O                 2.7033960054       -0.3583180517        1.3626239543
O                 2.8791966225       -0.4455766731       -1.2735627439
O                 2.9080116961        1.5789974826        0.0000000000
F                -0.3941704224       -1.9701777722        1.2487551264
F                 1.6993839149       -1.7463119999       -0.0746729066
F                -0.5556368868       -2.1522176948       -0.8251957348
H                 2.9145003721        2.0603747715        0.8372451736


