%mem=28GB
%nprocshared=8
#P wb97xd/6-311++G(d,p) ! ASE formatted method and basis
Symm(None)
scf(xqc)
pop(None)
freq
opt(CalcFC, Tight)

Gaussian input prepared by ASE

0 1
C                 0.0000000000        0.0000000000        0.0000000000
C                 1.5579294246        0.0000000000        0.0000000000
F                 1.5004085939        0.0226858594        2.6033389581
F                 1.9532869111       -0.7262151345       -1.0748410376
S                 2.3263786124       -0.8045959436        1.5076843762
O                 3.6913683577       -0.4117410756        1.6349478728
O                 1.8707995599       -2.1524001806        1.5750056261
O                 2.0737260260        1.2444094924        0.0000000000
F                -0.5011159442       -1.2223160331       -0.0046407336
F                -0.4813959413        0.6726726244        1.0331118763
F                -0.3892097065        0.6300621149       -1.1221758246
H                 1.6529732059        1.7888835896       -0.6751579342


