%mem=28GB
%nprocshared=8
#P wb97xd/6-311++G(d,p) ! ASE formatted method and basis
Symm(None)
scf(xqc)
pop(None)
opt(NoFreeze,TS,CalcAll,NoEigentest,MaxCycle=999)

Gaussian input prepared by ASE

0 1
C                -0.0757182975       -0.7794670073        1.3492208817
C                 0.0000000000        0.0000000000        0.0000000000
F                -0.6284052038       -0.5590322032       -1.0027648251
F                -0.5078102560        1.2185922656        0.1855615409
S                 1.8703986207        0.0000000000        0.0000000000
O                 1.9479840861       -0.2671887413        1.4634804926
O                 2.7409503072       -0.4110696655       -1.0646750447
O                 2.0562259814        1.6215329094        0.0000000000
F                 1.1203478059       -1.9210418056        0.0340485442
F                -0.2442977712       -0.0662857940        2.4037047416
F                -0.6627311511       -1.8904800047        1.5006780530
H                 2.4900392593        1.8788099785        0.8215529267


