%mem=28GB
%nprocshared=8
#P am1 
Symm(None)
scf(xqc)
pop(None)
force

Gaussian input prepared by ASE

0 1
C                 1.8566451195       -0.7857513912       -1.2085605969
C                 1.8695935808        0.0259231611        0.0559836241
F                -0.6914760512        0.8679463015        0.8576798350
F                 2.0750631448       -0.6729664805        1.1697704639
S                 1.7068516430        1.6808585078        0.1324833597
O                 0.2095956121        1.8867546568       -0.1880609842
O                 2.1210524582        2.4610396302        1.2497976668
O                 2.2276702043        2.3497612396       -1.1877726622
F                 1.7385142820       -0.0320617138       -2.3083413455
F                 2.9635810809       -1.5090495952       -1.4155696569
F                 0.8555065667       -1.6610728597       -1.2882220235
H                 1.9941523589        2.0213385434       -2.0715496803


