12
energy = 0
C 1.85664512 -0.78575139 -1.20856060
C 1.86959358 0.02592316 0.05598362
F -0.69147605 0.86794630 0.85767984
F 2.07506314 -0.67296648 1.16977046
S 1.70685164 1.68085851 0.13248336
O 0.20959561 1.88675466 -0.18806098
O 2.12105246 2.46103963 1.24979767
O 2.22767020 2.34976124 -1.18777266
F 1.73851428 -0.03206171 -2.30834135
F 2.96358108 -1.50904960 -1.41556966
F 0.85550657 -1.66107286 -1.28822202
H 1.99415236 2.02133854 -2.07154968
12
energy = 0
C 1.87185499 -0.79263995 -1.15884087
C 1.87809982 0.01316086 0.10950506
F -0.83441492 0.75531655 0.06190084
F 2.01971815 -0.70198867 1.22291918
S 1.80059896 1.67337752 0.20343264
O 0.29953005 2.03788676 0.17440377
O 2.47962436 2.41305122 1.21360267
O 2.18706669 2.27603795 -1.19270557
F 1.67662900 -0.04482597 -2.25162712
F 3.00741955 -1.45906031 -1.39904350
F 0.91367143 -1.71703940 -1.20555207
H 1.62695194 2.17944344 -1.98035704
12
energy = 0
C 1.85598612 -0.80227952 -1.11541250
C 1.91028447 0.00920163 0.14815601
F -0.55731421 1.06748609 -0.68957200
F 2.15162803 -0.70499575 1.24490620
S 1.82212192 1.66675180 0.27426294
O 0.31650508 1.90280134 0.52786907
O 2.62185674 2.41088017 1.18822866
O 1.93233360 2.29637722 -1.15863064
F 1.63661876 -0.05999443 -2.20738847
F 2.98415574 -1.47218299 -1.37957704
F 0.89450199 -1.72421390 -1.13534447
H 1.35807175 2.04288834 -1.89985975
