%mem=28GB
%nprocshared=8
#P wb97xd/6-311++G(d,p) ! ASE formatted method and basis
Symm(None)
scf(xqc)
pop(None)
opt(NoFreeze,TS,CalcAll,NoEigentest,MaxCycle=999)

Gaussian input prepared by ASE

0 1
C                -0.5905580594       -1.3420508905       -0.4837177418
C                 0.0000000000        0.0000000000        0.0000000000
F                -0.5039039106        1.0217159150       -0.6715789150
F                -0.3797832765        0.2435932913        1.2689752271
S                 1.9277442911        0.0000000000        0.0000000000
O                 1.2884547202        0.8493871718        2.4584775226
O                 2.3450509972       -0.2710431302       -1.3650514128
O                 2.1719034531        1.5950133316        0.0000000000
F                -0.4836789379       -1.5235276851       -1.7894844357
F                 0.0018217102       -2.3945293756        0.0796707675
F                -1.8819761096       -1.4801209816       -0.2048102837
H                 1.7989246515        2.0795977096       -0.7693067888


