%mem=28GB
%nprocshared=8
#P am1 
Symm(None)
scf(xqc)
pop(None)
force

Gaussian input prepared by ASE

0 1
C                -0.9929809978        0.3820585717        1.3344261211
C                -0.0046063972        0.3453593388        0.1368828347
F                 0.8149593252       -0.7233711739        0.1576214412
F                -0.6261517592        0.2699020096       -1.0505813280
S                 2.3417151000        0.0042517851       -0.0364039543
O                 2.9791030471       -0.6059355603        1.0804438847
O                 2.5675052812       -0.3841328084       -1.3873783901
O                 2.0702177245        1.4798842431        0.1488055150
F                -2.0139495859       -0.4579594626        1.2447468036
F                -0.3906779045        0.1131709530        2.4912330602
F                -1.5212679228        1.6004969523        1.4677752916
H                 0.8265560895        1.5743131517        0.2307227204


