%mem=28GB
%nprocshared=8
#P wb97xd/6-311++G(d,p) ! ASE formatted method and basis
Symm(None)
scf(xqc)
pop(None)
freq
opt(CalcFC, Tight)

Gaussian input prepared by ASE

0 1
C                -0.7482883149        2.8982541441        1.8405202770
C                 0.1273052936        1.7283033284        2.3611706548
F                 0.2256680552        1.8100993860        3.6852991628
F                -0.4523744424        0.5736776393        2.0152775654
S                 1.8576487965        1.7564360656        1.5391079276
O                 0.9656734254        0.0000000000        0.0000000000
O                 2.5397307269        0.5905179350        2.0955301354
O                 1.2422391943        1.3943354574        0.0000000000
F                -0.3159396536        4.0587023512        2.3060921293
F                -0.7007417483        2.9209218838        0.5049492749
F                -2.0093044578        2.7234590002        2.2190036744
H                 0.0000000000        0.0000000000        0.0000000000


