12
energy = -1199.6061143099998
C -0.38427100 -0.37686300 1.54387500
C -0.05119600 0.94242200 -0.50580300
F -0.63250700 0.26748500 -1.39642800
F -0.61798100 2.03944000 -0.25705700
S 1.31565300 0.26672900 0.52839600
O 1.70639400 1.09729100 1.64576600
O 1.69277400 -1.09778300 0.23319400
O 2.16583800 1.07305600 -0.73324500
F 0.06345600 -1.04625600 2.58755900
F -1.16154600 0.62684200 1.98654400
F -1.16708200 -1.19535600 0.81993400
H 3.12089300 1.00102900 -0.63444000
