12
energy = -1199.5949463
C -0.87390000 0.65651800 -1.06510300
C -0.10626500 0.03357900 0.13137300
F -0.48921900 0.65042700 1.24976200
F -0.42818300 -1.26698400 0.19402000
S 1.91662200 0.04077100 -0.22964800
O 2.04264100 -0.46440300 1.22472400
O 3.48383500 -0.18178900 0.11998300
O 1.88602000 1.66367700 -0.23636200
F -0.79662400 1.97907300 -1.05367500
F -0.36132600 0.20449700 -2.21422200
F -2.15860500 0.30849200 -1.01430500
H 2.77517000 2.00133300 -0.07206500
12
energy = -1199.59310067
C -0.75843000 0.64420400 -1.12740600
C -0.07028800 0.04192000 0.11639100
F -0.46961100 0.74686800 1.20431800
F -0.46683800 -1.22367300 0.23792800
S 2.01266400 0.23170800 -0.13643600
O 2.06782700 -0.78136500 1.03042100
O 3.53729700 -0.13947800 0.14060000
O 2.01272000 1.72465400 0.48749000
F -0.40408200 1.92307400 -1.27327100
F -0.38367600 -0.02733200 -2.21419400
F -2.08238900 0.58346100 -1.02318900
H 1.23314000 1.90609800 1.02882900
12
energy = -1199.5949827000002
C -0.73637600 0.75023000 -1.03283600
C -0.05937900 0.01467900 0.15450400
F -0.51025400 0.54094500 1.29366000
F -0.40004500 -1.28065800 0.08357800
S 1.98261300 0.01685300 -0.06939500
O 2.00518500 -0.61295700 1.34094100
O 3.52034100 -0.26238300 0.36154100
O 1.97164300 1.63463700 0.06240100
F -0.64579500 2.06553400 -0.90215200
F -0.15098700 0.38959500 -2.17948300
F -2.02516400 0.42046500 -1.09920100
H 2.85190800 1.94142200 0.31260100
12
energy = -1199.59669592
C -0.74258400 -1.23293400 0.01098400
C 0.00598300 0.09449900 -0.21276800
F -0.32091800 0.57737700 -1.42067800
F -0.38658100 1.00156000 0.71305800
S 2.08328800 0.01068500 -0.31314100
O 1.97795100 -0.79856100 1.00135700
O 3.54787400 -0.43834100 0.12875400
O 2.18875500 1.58664400 0.04198800
F -0.21399800 -2.16897800 -0.78061500
F -0.65163200 -1.62733600 1.27241700
F -2.03261500 -1.10123100 -0.29778300
H 1.43464300 1.90663500 0.55605000
12
energy = -1199.5966277700002
C -0.75850100 -1.26503000 -0.00449600
C -0.06257400 0.10839000 -0.04719300
F -0.42520900 0.74260100 -1.17199100
F -0.47418700 0.86125300 1.00076100
S 2.01551800 0.12073800 -0.17687700
O 1.95780000 -0.87205500 1.00847800
O 3.50123900 -0.33011100 0.18426200
O 2.06709400 1.63217200 0.40080100
F -0.20905500 -2.05963100 -0.92584900
F -0.63290900 -1.82881300 1.18773900
F -2.05733500 -1.14086600 -0.27751400
H 1.30645200 1.84632100 0.95849900
12
energy = -1199.5976953400002
C -0.74240200 -1.25732400 -0.01127800
C -0.06696700 0.13012800 0.04195000
F -0.44279100 0.82864100 -1.04279200
F -0.45464900 0.78796400 1.13199600
S 1.98061000 0.05632000 -0.18210800
O 1.97449900 -0.82889800 1.08529800
O 3.50421800 -0.33832400 0.21630100
O 2.01040200 1.62321000 0.23682000
F -0.17294300 -1.98694000 -0.97743000
F -0.61244100 -1.89723600 1.14201500
F -2.04030700 -1.13907700 -0.28505300
H 2.86646300 1.82472700 0.63558200
12
energy = -1199.5967424500004
C -0.79776900 0.56014100 1.15735400
C 0.02990800 -0.02731800 -0.00153300
F -0.34089800 -1.28605900 -0.23907200
F -0.24172500 0.71938300 -1.10872100
S 2.11451500 -0.06207300 -0.01998500
O 1.97186100 -0.41892800 1.47540200
O 3.55931900 -0.33060800 0.59424800
O 2.25892500 1.54771700 -0.15446300
F -0.65279400 -0.15597100 2.26098200
F -0.39284300 1.81312800 1.39192000
F -2.09341700 0.59457100 0.84195000
H 1.47508300 1.93772800 -0.56289300
12
energy = -1199.59690168
C -0.86451100 0.45940000 1.26716600
C -0.01043400 0.02054100 0.06262800
F -0.35615000 -1.20832000 -0.32285900
F -0.27853700 0.88463600 -0.95660100
S 2.07462600 0.02124800 0.07607600
O 1.91472500 -0.50383800 1.51925900
O 3.51408300 -0.29062400 0.68221600
O 2.19122300 1.63812800 0.12520900
F -0.72349300 -0.37591300 2.28415800
F -0.48397600 1.68329100 1.64947600
F -2.15585700 0.51027400 0.93669700
H 1.40663600 2.05783300 -0.25123800
12
energy = -1199.59823191
C -0.81801200 0.55085900 1.19054800
C 0.00003100 0.00119300 -0.00010900
F -0.32573100 -1.28235700 -0.20605100
F -0.31211400 0.70284400 -1.09846000
S 2.04187700 -0.00029100 0.00036600
O 1.95090800 -0.51291000 1.45624100
O 3.53413700 -0.26788200 0.57889500
O 2.05594200 1.62099100 -0.00166600
F -0.64191500 -0.20478800 2.26794600
F -0.45195300 1.79751000 1.47265700
F -2.11778000 0.55200400 0.88642300
H 2.88830100 1.92770700 0.38007600
