%mem=28GB
%nprocshared=8
#P wb97xd/6-311++G(d,p) ! ASE formatted method and basis
Symm(None)
scf(xqc)
pop(None)
freq
opt(CalcFC, Tight)

Gaussian input prepared by ASE

0 1
C                 1.7118464978        4.2674089035       -0.3759462953
C                 0.3934545078        3.8635767078        0.3348898412
F                 0.5965806133        3.8303905906        1.6491655355
F                -0.5461326384        4.7683349147        0.0392216329
S                -0.2343027972        2.1713736602       -0.3077895721
O                 0.9656734254        0.0000000000        0.0000000000
O                -0.4069769465        2.3732456796       -1.7443263263
O                 1.2422391943        1.3943354574        0.0000000000
F                 2.7185290630        3.5072627962        0.0229154157
F                 1.5585921031        4.1279455448       -1.6963960165
F                 1.9980845627        5.5372100274       -0.1120569002
H                 0.0000000000        0.0000000000        0.0000000000


