%mem=28GB
%nprocshared=8
#P wb97xd/6-311++G(d,p) ! ASE formatted method and basis
Symm(None)
scf(xqc)
pop(None)
freq
opt(CalcFC, Tight)

Gaussian input prepared by ASE

0 1
C                 5.1318842467        0.8950478167       -1.0270901126
C                 3.8377611677        0.9923361864       -0.1772040473
F                 3.5563211887       -0.2043472418        0.3311486298
F                 4.0391106584        1.8731799446        0.8089013039
S                 2.3805687083        1.6527151520       -1.2313183555
O                 0.9656734254        0.0000000000        0.0000000000
O                 2.2171657382        0.6544985457       -2.2853912166
O                 1.2422391943        1.3943354574        0.0000000000
F                 5.0492152443       -0.0893555212       -1.9071119649
F                 5.3156071354        2.0469988044       -1.6796077187
F                 6.1777490413        0.6816052352       -0.2367902753
H                 0.0000000000        0.0000000000        0.0000000000


