%mem=28GB
%nprocshared=8
#P am1 
Symm(None)
scf(xqc)
pop(None)
force

Gaussian input prepared by ASE

0 1
C                 1.8659031779       -0.0652412211       -0.1541967984
C                 2.3653927885        1.2188243126        0.1703855125
F                 3.0057330148        1.3576822246        1.3230345599
F                 3.1084767634        1.8363319094       -0.7332418613
S                 0.4604062416        2.4933822263        0.3836152493
O                 0.6705300772        2.4984048231        1.8076067504
O                 0.9396663906        3.2759328798       -0.7244868970
O                -1.1332921788        2.6757631622        0.2687605260
F                 0.0146779149        0.6214861676       -0.0767405953
F                 1.6754067593       -0.4970399182       -1.3423380022
F                 1.5811617365       -0.9766323015        0.6927701044
H                -1.7311426859        2.2206707351        0.8761144516


