%mem=28GB
%nprocshared=8
#P am1 
Symm(None)
scf(xqc)
pop(None)
force

Gaussian input prepared by ASE

0 1
C                 1.8775411342       -0.0490250015       -0.2048624896
C                 2.3627998768        1.2066131468        0.2328184855
F                 2.9310734414        1.2580191890        1.4296223654
F                 3.1617554941        1.8822433971       -0.5766415467
S                 0.4494949626        2.4826142179        0.3329389759
O                 0.7123400578        2.6960283806        1.7319728929
O                 0.8747160788        3.0948759337       -0.8976254382
O                -1.1499723238        2.6355193316        0.2647224482
F                 0.0220814666        0.5671918591        0.0817995911
F                 1.6422063516       -0.3540963070       -1.4238651799
F                 1.6506986375       -1.0546565922        0.5476744931
H                -1.7118151777        2.2942374446        0.9727284024


