%mem=28GB
%nprocshared=8
#P wb97xd/6-311++G(d,p) ! ASE formatted method and basis
Symm(None)
scf(xqc)
pop(None)
opt(CalcAll, Tight,Cartesian)

Gaussian input prepared by ASE

0 1
C                -0.9049140000        0.6470420000       -1.4074130000
C                -0.2670320000        0.0777640000       -0.1103260000
F                -0.6004000000        0.8036110000        0.9425910000
F                -0.8975310000       -1.1744500000        0.0829100000
S                 1.6469440000       -0.1921040000       -0.1071340000
O                 0.1635770000       -2.4368970000        0.2458560000
O                 2.0148230000       -0.5008690000       -1.4774360000
O                 1.8931790000        1.4411490000        0.0819690000
F                -0.2918010000        1.7666620000       -1.7569200000
F                -0.8183590000       -0.2333460000       -2.3876730000
F                -2.1909240000        0.9143160000       -1.1800920000
H                 2.3219900000        1.6003830000        0.9301900000


