%mem=28GB
%nprocshared=8
#P wb97xd/6-311++G(d,p) ! ASE formatted method and basis
Symm(None)
scf(xqc)
pop(None)
freq
opt(CalcFC, Tight)

Gaussian input prepared by ASE

0 1
C                 0.4906617980       -2.1128860632       -1.9622034629
C                 1.3503946837        0.0000000000        0.0000000000
F                 0.0000000000        0.0000000000        0.0000000000
F                 1.7722704782       -0.6752161935        1.0514946879
S                 1.8879906000       -0.8874842606       -1.5977116819
O                 3.0725526787       -1.6696528347       -1.3591469553
O                 1.8176556216        0.1592771760       -2.6004053969
O                 1.8736011381        1.2231899023        0.0000000000
F                 0.9209497291       -2.9157773433       -2.9171217306
F                 0.2303219109       -2.8125547868       -0.8702369785
F                -0.5931996818       -1.4809282874       -2.3641647158
H                 1.4396162192        1.7684784091        0.6713728307


