%mem=28GB
%nprocshared=8
#P wb97xd/6-311++G(d,p) ! ASE formatted method and basis
Symm(None)
scf(xqc)
pop(None)
freq
opt(CalcFC, Tight)

Gaussian input prepared by ASE

0 1
C                 4.1184741244        1.9329341498        1.0240459689
C                 3.8377611677        0.9923361864       -0.1772040473
F                 4.9423957460        0.8745387121       -0.9090430577
F                 3.4703333997       -0.2043895787        0.2936201089
S                 2.3805687083        1.6527151520       -1.2313183555
O                 0.9656734254        0.0000000000        0.0000000000
O                 2.2171657382        0.6544985457       -2.2853912166
O                 1.2422391943        1.3943354574        0.0000000000
F                 4.6545330233        3.0728114811        0.6195177467
F                 2.9693534922        2.1929602542        1.6552611476
F                 4.9488572634        1.3433109620        1.8765558374
H                 0.0000000000        0.0000000000        0.0000000000


