%mem=28GB
%nprocshared=8
#P wb97xd/6-311++G(d,p) ! ASE formatted method and basis
Symm(None)
scf(xqc)
pop(None)
freq
opt(CalcFC, Tight)

Gaussian input prepared by ASE

0 1
C                 0.0365242856        0.2706987513       -2.4290141570
C                -0.1737559937        1.7880186902       -2.1839666075
F                 0.8025609887        2.4675597452       -2.7795429988
F                -1.3573956121        2.1436350741       -2.6952056404
S                -0.2343027972        2.1713736602       -0.3077895721
O                 0.9656734254        0.0000000000        0.0000000000
O                -1.3430407565        1.3606637954        0.1898610812
O                 1.2422391943        1.3943354574        0.0000000000
F                 1.2644681824       -0.0974663667       -2.1020114228
F                -0.8358915433       -0.4183696640       -1.6869900706
F                -0.1739116677       -0.0147979377       -3.7089255161
H                 0.0000000000        0.0000000000        0.0000000000


