12
energy = -1199.7701093100002
C 2.00272300 0.47758800 -2.88272600
C 1.29740300 0.03645000 -0.05400300
F -0.02876800 0.17957600 -0.17905400
F 1.50993800 -0.76975500 0.99700500
S 1.97326800 -0.88127300 -1.56122900
O 0.97292400 -1.83240500 -1.97065600
O 3.33982700 -1.23653200 -1.28062100
O 1.94277800 1.20167000 0.03680300
F 2.11175200 -0.12897600 -4.05114000
F 0.87256300 1.16761900 -2.84233000
F 3.02744900 1.28567000 -2.70317000
H 1.65284200 1.69235400 0.81493500
12
energy = -1199.77362937
C 1.80973300 0.43612300 -2.95467100
C 1.40344700 0.16575800 -0.01412800
F 0.35971800 0.91686400 -0.34671900
F 0.99065100 -0.77990100 0.84230900
S 1.99946600 -0.80805700 -1.54104200
O 1.11941800 -1.91063800 -1.82404700
O 3.42591500 -0.96151400 -1.31623200
O 2.37960600 0.92923500 0.46875400
F 2.47887100 -0.04271600 -3.98673800
F 0.53911300 0.58117300 -3.27111500
F 2.32036800 1.60147300 -2.59022600
H 3.22901500 0.47364100 0.38188200
12
energy = -1199.7684587
C 2.08125900 0.41250400 -2.91036200
C 1.35315000 0.04244300 -0.08422800
F 0.02117800 0.13193400 -0.18055300
F 1.67331300 -0.70544400 0.96090300
S 1.97661900 -0.95010200 -1.59573500
O 0.93679200 -1.84832700 -2.02914100
O 3.32663200 -1.36936000 -1.32037700
O 1.94255400 1.24162500 0.01947800
F 2.03791100 -0.15545700 -4.09655000
F 1.03363100 1.23456600 -2.77437200
F 3.19252400 1.11061400 -2.78454100
H 1.41060600 1.91376000 -0.41904200
12
energy = -1199.76939248
C 3.52774100 -1.63183900 -1.13917300
C 1.32089800 -0.00493700 -0.04241600
F -0.00519300 0.17552000 -0.12458700
F 1.54495300 -0.80456800 1.01868700
S 1.82273300 -0.94554400 -1.60410400
O 2.03046000 0.01000100 -2.66002200
O 0.93593200 -2.07432000 -1.71575600
O 2.00333500 1.13603900 0.01237700
F 4.08064800 -2.06405600 -2.25796500
F 4.27573200 -0.67756400 -0.60929800
F 3.40938900 -2.63036300 -0.28563000
H 1.72172500 1.65997300 0.77192900
12
energy = -1199.77392862
C 3.43288600 -1.98472800 -1.10782600
C 1.48574200 -0.03746300 0.10245000
F 0.46651900 -0.78209300 0.48494100
F 2.48830000 -0.18639900 0.99481500
S 2.15495300 -0.66463200 -1.56726900
O 2.88199200 0.47909500 -2.08626500
O 1.11374700 -1.33398100 -2.30194300
O 1.10007900 1.22723800 -0.04504800
F 3.75261000 -2.61659400 -2.22146600
F 4.50782900 -1.43318400 -0.58248000
F 2.89146000 -2.83302500 -0.24937200
H 1.77285800 1.72356100 -0.53228200
12
energy = -1199.77376394
C 3.51476500 -1.68524400 -1.15610500
C 1.34713800 0.00539200 -0.00288800
F 0.00712400 0.04521800 -0.03196200
F 1.72431400 -0.68944300 1.06443300
S 1.82559000 -0.94649000 -1.58418100
O 2.06989900 0.10329600 -2.55731800
O 0.92643400 -2.04589400 -1.81456500
O 1.91344000 1.20870400 0.01241400
F 4.05612800 -2.09958000 -2.28632200
F 4.27856000 -0.75407900 -0.60731300
F 3.37543800 -2.69905800 -0.32641100
H 1.94099400 1.57229200 -0.88407500
12
energy = -1199.76969462
C 0.53553200 -2.13942000 -1.91753000
C 1.24657700 0.03661000 -0.06398900
F -0.08883800 0.19855600 -0.14149500
F 1.48101600 -0.77690900 0.97559400
S 1.84173700 -0.79101100 -1.65627800
O 3.07802100 -1.46580500 -1.35725100
O 1.68807300 0.15170000 -2.73290500
O 1.91374900 1.18582400 0.01417800
F 1.02488400 -2.97341100 -2.81708500
F 0.31458800 -2.78499400 -0.78275300
F -0.59131100 -1.61756600 -2.36081400
H 1.81878600 1.57287100 0.89220600
12
energy = -1199.7738105699998
C 0.67926300 -2.23648900 -1.81147600
C 1.19004100 0.20066700 -0.12092500
F 0.18824900 1.01504900 -0.39079700
F 0.74836900 -0.76482400 0.71354200
S 1.75510700 -0.68102900 -1.71257300
O 3.10486200 -1.10872400 -1.39349000
O 1.43527400 0.11741700 -2.86670700
O 2.21984300 0.88529400 0.36936500
F 0.86564500 -2.75853700 -3.00915300
F 1.02762000 -3.10650200 -0.88556500
F -0.59033100 -1.89693200 -1.66190300
H 3.01949400 0.34051000 0.34577200
12
energy = -1199.7737430099999
C 0.49032800 -2.11136400 -1.96268200
C 1.35018000 0.00013500 0.00109900
F -0.00024200 -0.00577500 0.00314800
F 1.77614000 -0.67112900 1.05351100
S 1.88915200 -0.88853700 -1.59565000
O 3.07240800 -1.67239800 -1.35615100
O 1.82141100 0.15910400 -2.59785800
O 1.86816600 1.22540300 -0.00301900
F 0.91907600 -2.91155000 -2.92059100
F 0.23058100 -2.81422800 -0.87269400
F -0.59333200 -1.47723400 -2.36164300
H 1.75041700 1.63079100 -0.87392800
