%mem=28GB
%nprocshared=8
#P wb97xd/6-311++G(d,p) ! ASE formatted method and basis
Symm(None)
scf(xqc)
pop(None)
freq
opt(CalcFC, Tight)

Gaussian input prepared by ASE

0 1
C                 1.5371941078        4.3020511212        0.2731462620
C                 2.6097685523        3.4239718807        0.9696279940
F                 3.6266851538        3.2293708092        0.1343476926
F                 3.0340471878        4.0582079643        2.0680647638
S                 1.8576487965        1.7564360656        1.5391079276
O                 0.9656734254        0.0000000000        0.0000000000
O                 0.7716657655        2.1394624633        2.4380729743
O                 1.2422391943        1.3943354574        0.0000000000
F                 1.2122348239        3.8060355357       -0.9095170708
F                 0.4435056878        4.3491224001        1.0400584725
F                 1.9979912673        5.5372285325        0.1120019867
H                 0.0000000000        0.0000000000        0.0000000000


