%mem=28GB
%nprocshared=8
#P am1 
Symm(None)
scf(xqc)
pop(None)
force

Gaussian input prepared by ASE

0 1
C                -1.0048245718        0.4033603742        1.3181708410
C                 0.0008660938        0.3187170667        0.1375934808
F                 0.8408271687       -0.7298221089        0.2342059108
F                -0.6019178896        0.1634877265       -1.0517924551
S                 2.3521690728        0.0088210730       -0.0265589393
O                 3.0818335595       -0.6677587030        0.9911692319
O                 2.4749139552       -0.2809751078       -1.4150500599
O                 2.0646207788        1.4599629570        0.2849017080
F                -2.0451217609       -0.4124042833        1.2267415374
F                -0.4287934834        0.1412771037        2.4898245468
F                -1.5049010671        1.6366557637        1.4199900182
H                 0.8207501439        1.5567161380        0.2090981793


