12
energy = -1199.6895918
C 4.01649400 1.80372700 1.08422600
C 3.83655200 0.91367200 -0.17173200
F 4.96119700 0.99668100 -0.90748300
F 3.63958000 -0.34959300 0.17299800
S 2.48057600 1.50090400 -1.39577800
O 0.88579900 0.57891500 0.40461500
O 2.18566100 0.29541800 -2.17073400
O 1.24765800 1.76478000 -0.28666400
F 4.00459800 3.08713200 0.71083600
F 3.05356100 1.59942700 1.96571300
F 5.18615100 1.54169500 1.66010700
H 0.24952800 0.17329200 -0.20006000
12
energy = -1199.68961773
C 1.04501800 2.40291400 -2.84833600
C -0.27019400 1.79790500 -2.29495900
F -1.30178500 2.41290400 -2.90376000
F -0.33233900 0.49967500 -2.54827200
S -0.60388700 2.14183100 -0.43694400
O 1.23527500 0.37129900 -0.09409600
O -1.56980000 1.10454000 -0.07378300
O 0.90876000 1.72851400 0.16377200
F 1.16893200 3.65513300 -2.39749100
F 2.09874700 1.70005700 -2.47194400
F 1.00407000 2.43399300 -4.17717700
H 0.82018900 -0.08590200 0.64999400
12
energy = -1199.68710085
C -0.80076200 2.69859300 1.76080000
C 0.12903400 1.67973600 2.46395900
F 0.28776700 2.07449000 3.73883300
F -0.42755200 0.47376500 2.44806300
S 1.92551900 1.60514400 1.78332800
O 0.87914200 0.34984400 -0.23061100
O 2.40533100 0.32219400 2.28003200
O 1.55548000 1.54359700 0.14873200
F -0.15946300 3.85243200 1.59404000
F -1.18080600 2.24375200 0.56064400
F -1.89090900 2.91190400 2.48343000
H 0.00883700 0.69925400 -0.46430000
12
energy = -1199.6860444200001
C 1.36533200 -1.11243900 -2.34611600
C 1.48452800 0.40597800 -2.64963100
F 2.42117700 0.57576900 -3.59611700
F 0.32672300 0.87986100 -3.09261800
S 2.11959300 1.47440400 -1.19294700
O 1.11846400 1.15159000 1.08856100
O 1.89401200 2.84408900 -1.63229600
O 0.80492000 0.91281900 -0.27876700
F 2.39369000 -1.48511800 -1.57225900
F 0.23499000 -1.39776000 -1.72065500
F 1.41434300 -1.81014600 -3.47490800
H 1.18012800 0.24888300 1.42441100
12
energy = -1199.68491681
C -1.48853400 -0.46439700 0.49199400
C -1.41784800 1.01882700 0.92691000
F -2.64672200 1.54482500 0.81065100
F -1.02077800 1.10032500 2.19229200
S -0.29761700 2.12419900 -0.17008300
O 1.56349600 0.55431600 -0.85782000
O -0.28242500 3.38269300 0.56545100
O 1.13542100 1.30955700 0.26725500
F -1.74455600 -0.53304700 -0.81505000
F -0.32732400 -1.08676000 0.72346500
F -2.44158900 -1.10322800 1.15261000
H 1.46409400 -0.34696900 -0.52506100
12
energy = -1199.6879568600002
C 2.52762600 -1.39818900 1.81488500
C 3.03793600 0.04820800 1.57288700
F 3.80842800 0.40593900 2.61191600
F 3.75743000 0.10410300 0.45789900
S 1.68457600 1.40228600 1.54462800
O -0.30048600 1.15843600 0.03863000
O 2.37562500 2.60062500 1.07979600
O 0.98453100 0.58414100 0.23608200
F 1.56524300 -1.37213300 2.74142100
F 2.04951400 -1.93633700 0.70657200
F 3.52391100 -2.15767100 2.26131600
H -0.16497700 1.64358700 -0.78530500
12
energy = -1199.6860442299999
C 0.55514200 3.79113500 -1.70601600
C 2.00449800 3.52600300 -1.21522800
F 2.85623500 4.07367300 -2.09647800
F 2.19602500 4.07799400 -0.02359700
S 2.52076800 1.68240300 -1.17795900
O 0.96497300 -0.00338500 -0.15371300
O 3.78282700 1.68128300 -0.45195800
O 1.22175500 1.39594900 -0.12447500
F 0.26950900 2.94233000 -2.70260000
F -0.32736100 3.62202100 -0.73501200
F 0.44752900 5.03188800 -2.16683100
H 0.08445500 -0.02149500 -0.54847700
12
energy = -1199.6860498300002
C 0.72614700 3.70223200 1.81123100
C 0.48832500 3.86976600 0.28574400
F -0.37128400 4.88408600 0.10056800
F 1.62994000 4.14817700 -0.33109700
S -0.37571400 2.38781000 -0.56514300
O 0.43692200 0.05904200 -0.08737600
O -0.24091500 2.66669100 -1.98781700
O 0.89632200 1.40428000 -0.02289800
F -0.32788600 3.07544100 2.35104400
F 1.81661700 2.99577800 2.06033200
F 0.84898200 4.89161500 2.38890300
H 0.42898600 -0.17866600 0.84799500
12
energy = -1199.6879531700004
C 3.71902600 3.19571400 -0.10894600
C 2.54565200 3.41457300 0.88433100
F 3.00747800 4.09784500 1.94317700
F 1.57445200 4.11204500 0.30619700
S 1.82715400 1.82313900 1.66988700
O 1.09836900 -0.07636800 0.21105800
O 0.61767700 2.26692000 2.35542400
O 1.45298400 1.29574900 0.10345000
F 4.52314400 2.24150900 0.36874100
F 3.28303400 2.83872900 -1.30434500
F 4.42110100 4.31872000 -0.23008800
H 0.14663200 -0.03763300 0.05197200
12
energy = -1199.6871523999998
C 3.66031900 -0.54013400 0.44777600
C 3.77124800 0.88154900 -0.16827600
F 4.05325800 1.75608700 0.80577200
F 4.77595100 0.87833400 -1.05822500
S 2.33753300 1.67648700 -1.15776300
O 0.68662700 0.23249200 0.18243600
O 2.02609100 0.77618500 -2.26699800
O 1.11904400 1.56922900 -0.00534200
F 2.91452900 -0.52284600 1.54077100
F 3.15668000 -1.39699600 -0.42914300
F 4.88514400 -0.95004800 0.78498300
H 0.06488400 0.10857500 -0.54807900
12
energy = -1199.6871593399999
C -0.04010000 0.21370800 -2.68152400
C -0.18071300 1.69697200 -2.24183000
F 0.85449100 2.39403100 -2.72689800
F -1.31853700 2.18453500 -2.76081800
S -0.31020600 2.20360100 -0.39987300
O 1.01105300 0.08704900 0.21761100
O -1.45876900 1.49575700 0.16375600
O 1.10366300 1.50084100 0.17593300
F 1.19196200 -0.22351700 -2.47665800
F -0.90521900 -0.55457900 -2.03485700
F -0.29854800 0.13533400 -3.98877700
H 0.54409000 -0.06808000 1.05034900
12
energy = -1199.68437912
C -0.74322100 0.33329100 2.26077600
C 0.10687100 1.62207000 2.38221500
F -0.60940000 2.65342800 1.91204400
F 0.37044400 1.82649200 3.68115200
S 1.83028200 1.76274500 1.54694600
O 1.20076600 0.11842400 -0.35305800
O 2.63211600 0.66257500 2.06431100
O 1.37324300 1.49597300 -0.05069000
F -1.23609000 0.22191500 1.01704800
F -0.02807000 -0.74182400 2.53733100
F -1.77320300 0.39866900 3.09711900
H 0.25001700 0.08102600 -0.51952200
12
energy = -1199.6845129700002
C -0.09418400 0.84523600 -2.73583100
C 1.41205200 0.51336700 -2.57479000
F 1.53463700 -0.79535400 -2.29401400
F 2.04306200 0.77622400 -3.72146200
S 2.39111100 1.45831700 -1.21640800
O 1.07346300 0.32941100 0.62404100
O 2.54497200 2.81825200 -1.71452700
O 1.09831400 1.54856800 -0.10342400
F -0.79029400 0.31852800 -1.71903500
F -0.29115000 2.15185600 -2.76327200
F -0.55482300 0.31285400 -3.86314000
H 0.24964900 -0.06301300 0.30533100
12
energy = -1199.68448566
C -0.73487700 0.94272000 2.34584100
C -1.39156700 1.15623800 0.95726300
F -1.70032700 -0.04534500 0.44010100
F -2.51036900 1.86890700 1.10731000
S -0.36498000 2.08029500 -0.38014000
O 1.30412900 0.18466000 -0.51649500
O -0.33700600 3.47518400 0.03770100
O 1.14950000 1.45371200 0.10140400
F 0.20805800 -0.00608700 2.26557500
F -0.18602400 2.06106200 2.78728500
F -1.64998500 0.53409200 3.21881800
H 1.26364000 -0.40356000 0.24938900
12
energy = -1199.6869471300001
C 4.08451900 0.02003400 0.31863000
C 3.26960000 0.09527000 1.64182400
F 2.93114800 -1.14043900 2.02669100
F 4.04043600 0.65319700 2.58310000
S 1.66942200 1.14269200 1.69554500
O -0.14154200 0.75124100 0.01108900
O 2.05306100 2.54262300 1.55501500
O 1.24300000 0.48759700 0.19310200
F 3.51169200 -0.79973800 -0.54908500
F 4.19650500 1.22738900 -0.22239800
F 5.30519400 -0.44088800 0.58980300
H -0.11554800 1.42450200 -0.68083600
12
energy = -1199.6853174300002
C 2.13483700 4.20607200 0.15822700
C 2.04971700 3.48249100 -1.21611000
F 0.83005300 3.67063300 -1.74063900
F 2.96449900 4.01684600 -2.03344900
S 2.38987300 1.60405200 -1.31309900
O 0.96531700 0.03664900 0.03618800
O 3.79036100 1.40050500 -0.97514800
O 1.39683100 1.39246900 0.04437500
F 1.06544300 3.94974600 0.89807500
F 3.22502400 3.83021500 0.81164500
F 2.19269500 5.52141900 -0.05174800
H 0.01525800 0.14701700 -0.09290500
12
energy = -1199.68533174
C 1.79663900 4.22546200 -0.30561300
C 0.37526000 3.84942200 0.20238900
F 0.40547300 3.70411400 1.53510000
F -0.46348200 4.84389200 -0.11025600
S -0.48632400 2.28858700 -0.48678200
O 0.63266400 0.05740900 -0.20853600
O -0.74985800 2.52837700 -1.89753200
O 0.96495700 1.43944900 -0.27190200
F 2.71905100 3.44758700 0.24284800
F 1.85813100 4.12118400 -1.62551800
F 2.05579100 5.48745400 0.03747000
H 0.88928600 -0.15185400 0.69801000
12
energy = -1199.6869776800002
C 1.52303200 4.32511400 0.19586100
C 2.53382000 3.41308500 0.94886100
F 3.60415900 3.20106500 0.17500400
F 2.91754800 4.03978100 2.06767600
S 1.96031800 1.69765400 1.57229900
O 0.92243600 0.06754400 -0.01959300
O 0.97412200 1.91679100 2.62394500
O 1.19697300 1.45840500 0.07952600
F 1.35359400 3.92062200 -1.05346400
F 0.35182800 4.32874600 0.82124100
F 1.99899400 5.56969900 0.17392400
H -0.03816900 0.05771600 0.07963000
12
energy = -1199.6893491400003
C 5.16069900 1.01368200 -0.97428000
C 3.78713300 0.76811100 -0.30497400
F 3.66116500 -0.52046600 -0.01513900
F 3.71698300 1.50465000 0.80429200
S 2.37781000 1.28690000 -1.52330500
O 0.99292800 0.64390300 0.54529900
O 1.96941400 0.02556800 -2.14345500
O 1.27519600 1.71862600 -0.33986300
F 5.23432200 0.34621800 -2.12350500
F 5.30445600 2.31493400 -1.22948600
F 6.14756400 0.61943600 -0.18136800
H 0.28562600 0.17545200 0.08132100
12
energy = -1199.6893560900003
C -1.42780500 2.42392700 -3.01483900
C -0.41494100 1.60304000 -2.18107300
F -0.57229000 0.31164100 -2.44145700
F 0.81788500 1.99668700 -2.50217500
S -0.73047800 1.91544800 -0.29888400
O 1.33917600 0.39505300 -0.17735800
O -1.54711900 0.77287600 0.11337700
O 0.85504500 1.68061000 0.18470300
F -2.67178100 2.10295100 -2.66698000
F -1.24431200 3.72442900 -2.78213500
F -1.26771200 2.19226500 -4.31051300
H 1.04765300 -0.15139500 0.56523200
12
energy = -1199.68547746
C 0.23806000 1.89165200 3.93647200
C 0.14009000 1.70416800 2.40331300
F -0.51538200 0.56406000 2.14008600
F -0.54507400 2.72878700 1.87933200
S 1.85737200 1.72541200 1.55123600
O 0.95709500 0.02005800 -0.20046300
O 2.57693600 0.58102500 2.09795900
O 1.24270700 1.39152300 0.00876700
F 0.73611800 0.81047700 4.51261400
F 1.03620100 2.93147700 4.19545700
F -0.96346300 2.13976800 4.44724800
H 0.00249500 -0.01608000 -0.05545200
12
energy = -1199.6853179200002
C 2.24149600 0.47608300 -3.90754400
C 1.31644500 0.61867600 -2.67776900
F 0.16194200 1.16330300 -3.04036600
F 1.09461300 -0.60930600 -2.16744200
S 2.10729400 1.66773500 -1.27898800
O 1.29490400 0.28793000 0.68386100
O 1.88292800 3.04859900 -1.68946400
O 0.83322000 1.29105200 -0.20707300
F 2.44625800 1.65733100 -4.47333300
F 3.41683700 -0.02249100 -3.51461400
F 1.70586900 -0.34631900 -4.80180600
H 0.80152900 -0.48293300 0.37581300
12
energy = -1199.68538025
C -2.87471200 1.57352400 0.95447800
C -1.39639100 1.13964400 1.07530700
F -0.98854700 1.26634800 2.33170300
F -1.29943700 -0.15118400 0.69834900
S -0.23739700 2.14407100 -0.07802400
O 1.26919800 0.23574500 -0.78902500
O 0.00033000 3.38975600 0.64131700
O 1.08876100 1.13535300 0.29320900
F -3.02565100 2.82506100 1.36464000
F -3.25089700 1.49143600 -0.32463300
F -3.65460800 0.78177200 1.68101600
H 0.96895600 -0.59509500 -0.39895900
12
energy = -1199.6865948200002
C 4.08408600 0.31124300 2.92397200
C 3.15909000 -0.05381400 1.73327800
F 3.86827500 -0.04389500 0.60783400
F 2.65188000 -1.27319000 1.94450900
S 1.67990900 1.15904100 1.62564000
O -0.07423500 0.72313200 -0.10145900
O 2.24045600 2.48054100 1.35429200
O 1.27912100 0.38391200 0.17069700
F 4.75098000 1.42804500 2.68236700
F 3.34006100 0.47826900 4.02173500
F 4.95080600 -0.67114500 3.14223200
H 0.02904800 1.31718200 -0.85575200
12
energy = -1199.6852215500003
C 2.98998000 4.21656100 -2.25112400
C 2.07144700 3.45247300 -1.26333500
F 2.15267300 4.01335400 -0.06083700
F 0.80986700 3.52215000 -1.71429900
S 2.52123200 1.59419700 -1.18908200
O 0.85872200 0.12064700 -0.01034500
O 3.86895300 1.52511700 -0.63789900
O 1.37071700 1.44570000 0.05250200
F 4.21807600 4.32227700 -1.77207200
F 3.03111800 3.55403900 -3.41168000
F 2.50599200 5.43373000 -2.47342500
H -0.05616400 0.28697600 -0.26853300
12
energy = -1199.68520226
C -0.62395000 5.01034300 0.08926300
C 0.29581800 3.77460900 0.26331500
F 1.51356300 4.06391800 -0.18457400
F 0.35159100 3.46570000 1.56764900
S -0.42104600 2.24122200 -0.62875500
O 0.67997300 0.04891000 -0.07542400
O -0.41916500 2.56168200 -2.05081000
O 1.00925800 1.42573100 -0.20875600
F -0.58485400 5.45979900 -1.15385500
F -1.88067000 4.66564500 0.38809700
F -0.24223400 5.98086000 0.91243300
H 0.82048000 -0.08508400 0.86990900
12
energy = -1199.68659981
C 3.16502300 4.21650700 2.15489900
C 2.59021600 3.37335000 0.98644400
F 1.66826900 4.08549600 0.34414100
F 3.58886200 3.05956800 0.15391200
S 1.86029000 1.72447500 1.63368400
O 0.99677500 0.08294500 -0.04251500
O 0.74818000 2.07475200 2.51374000
O 1.29755800 1.46893900 0.05368300
F 2.19496000 4.70356000 2.91122800
F 3.95517100 3.44326400 2.90611100
F 3.88598600 5.22346200 1.67512800
H 0.03198000 0.10217700 -0.07882000
