%mem=28GB
%nprocshared=8
#P wb97xd/6-311++G(d,p) ! ASE formatted method and basis
Symm(None)
scf(xqc)
pop(None)
freq
opt(CalcFC, Tight)

Gaussian input prepared by ASE

0 1
C                 0.6072150737        3.8175209013       -1.8265822572
C                 2.0408065661        3.5368252176       -1.3045178353
F                 2.9213370786        4.1512781296       -2.0898812984
F                 2.1392026893        4.0018324897       -0.0543508275
S                 2.3805687083        1.6527151520       -1.2313183555
O                 0.9656734254        0.0000000000        0.0000000000
O                 3.7351936150        1.5516481366       -0.6937466480
O                 1.2422391943        1.3943354574        0.0000000000
F                 0.5082165037        3.5383180917       -3.1159881786
F                -0.2619402611        3.0603395479       -1.1499953772
F                 0.2978423450        5.0949864121       -1.6359645237
H                 0.0000000000        0.0000000000        0.0000000000


