%mem=28GB
%nprocshared=8
#P wb97xd/6-311++G(d,p) ! ASE formatted method and basis
Symm(None)
scf(xqc)
pop(None)
freq
opt(CalcFC, Tight)

Gaussian input prepared by ASE

0 1
C                 0.9915173065        2.5531645340       -2.8645662460
C                -0.1737559937        1.7880186902       -2.1839666075
F                -1.3187530644        2.1164345739       -2.7762561051
F                 0.0464722221        0.4747316428       -2.3088976742
S                -0.2343027972        2.1713736602       -0.3077895721
O                 0.9656734254        0.0000000000        0.0000000000
O                -1.3430407565        1.3606637954        0.1898610812
O                 1.2422391943        1.3943354574        0.0000000000
F                 0.7365916691        3.8499332685       -2.9256098760
F                 2.1114685791        2.3631213150       -2.1602104225
F                 1.1788750712        2.0910851206       -4.0955595118
H                 0.0000000000        0.0000000000        0.0000000000


