%mem=28GB
%nprocshared=8
#P wb97xd/6-311++G(d,p) ! ASE formatted method and basis
Symm(None)
scf(xqc)
pop(None)
opt(NoFreeze,TS,CalcAll,NoEigentest,MaxCycle=999)

Gaussian input prepared by ASE

0 1
C                -0.2085622766       -1.3817473304        0.0149144938
C                 0.0000000000        0.0000000000        0.0000000000
F                -0.2958065075        0.6442949156       -1.1101326825
F                -0.3412973638        0.6640606829        1.0956193981
S                 2.4025294927        0.0000000000        0.0000000000
O                 3.0546168175       -0.4631685823        1.1982960857
O                 2.6129542699       -0.3540936147       -1.3704201218
O                 2.8439670773        1.5980857817        0.0000000000
F                -0.4699983032       -2.0202829016        1.0868988749
F                 1.8426847011       -1.7827535653        0.2407465092
F                -0.3000283077       -2.0524396578       -1.0635395393
H                 3.5740073131        1.7034689771       -0.6234431116


