%mem=28GB
%nprocshared=8
#P wb97xd/6-311++G(d,p) ! ASE formatted method and basis
Symm(None)
scf(xqc)
pop(None)
freq
opt(CalcFC, Tight)

Gaussian input prepared by ASE

0 1
C                 3.7689989499        3.1903825867       -0.0344371539
C                 2.6097685523        3.4239718807        0.9696279940
F                 3.0625419547        4.1232702102        2.0067684021
F                 1.6372840504        4.1013878109        0.3497790941
S                 1.8576487965        1.7564360656        1.5391079276
O                 0.9656734254        0.0000000000        0.0000000000
O                 0.7716657655        2.1394624633        2.4380729743
O                 1.2422391943        1.3943354574        0.0000000000
F                 4.8282717551        2.6814372058        0.5732126460
F                 3.3627292428        2.3413880913       -0.9834775512
F                 4.1098837415        4.3388698305       -0.6077951108
H                 0.0000000000        0.0000000000        0.0000000000


