12
energy = -1199.6259177400002
C -0.11167600 1.20770100 0.68272500
C 0.02091700 -0.12375700 0.22109800
F -0.27155000 -1.05549300 1.11340300
F -0.49800100 -0.38487700 -0.97070300
S 2.29619700 -0.18630400 -0.12404200
O 2.24290300 -1.54262200 0.35318400
O 2.14344400 0.26452500 -1.48246700
O 3.77523400 0.22634600 0.35376200
F 1.83788700 1.43246200 0.91826300
F -0.27151400 2.17170800 -0.13833500
F -0.35330900 1.49150400 1.90562000
H 3.87260400 1.18590300 0.29694200
12
energy = -1199.6258951599998
C -0.21528900 1.17915500 0.71910300
C 0.01222800 -0.12994300 0.23080200
F -0.13931700 -1.09290000 1.12510900
F -0.55161600 -0.42698600 -0.93184300
S 2.25795300 0.02150300 -0.24798500
O 2.35989500 -1.33572800 0.21848600
O 1.98275200 0.46229500 -1.59033600
O 3.71879800 0.56807600 0.14407500
F 1.71570800 1.58389500 0.83815600
F -0.51477900 2.13133800 -0.07626200
F -0.40619000 1.42776400 1.95844400
H 3.72381200 1.53264000 0.08936500
12
energy = -1199.6258950400002
C -0.23696600 1.09169500 0.86959300
C -0.00006600 -0.00010200 0.00034300
F -0.32795900 -1.19853700 0.46304000
F -0.39701400 0.18426600 -1.24800300
S 2.30217300 -0.00046900 -0.00012300
O 2.34273000 -0.90078100 1.12223000
O 2.21467300 -0.35039200 -1.39297900
O 3.68146900 0.82650200 0.00001100
F 1.64964800 1.67861200 0.81927300
F -0.66381800 2.22246700 0.45310800
F -0.30209100 0.92048200 2.13272400
H 3.76046400 1.31500000 0.82980900
12
energy = -1199.62588799
C -0.13338000 1.35988500 0.27288800
C 0.02055900 -0.04581300 0.20804800
F -0.29215500 -0.69294100 1.31862500
F -0.46281100 -0.63833900 -0.87508300
S 2.30414000 -0.17197700 -0.04659100
O 2.24506200 -1.33993200 0.79162000
O 2.18781200 -0.12338900 -1.48047400
O 3.76685300 0.37789100 0.33344100
F 1.80767400 1.66791400 0.48586100
F -0.27528000 2.05206900 -0.78994200
F -0.41155800 1.97247100 1.35990100
H 3.86103700 1.28351800 0.01034600
12
energy = -1199.6259135799999
C -0.24311900 1.34469600 0.31982700
C 0.01452000 -0.04241700 0.20611100
F -0.19159900 -0.74074700 1.31051900
F -0.47496600 -0.64261700 -0.87000000
S 2.28657600 0.01629200 -0.16055800
O 2.35897800 -1.17287200 0.64616100
O 2.09588700 0.09047700 -1.58533900
O 3.71931100 0.66985700 0.16535300
F 1.67653800 1.79880500 0.44634700
F -0.49196100 2.05081000 -0.71385600
F -0.51178200 1.90539800 1.43687500
H 3.72660500 1.58818500 -0.13478300
12
energy = -1199.6259348
C -0.23773700 1.30545800 0.48860700
C 0.00710800 0.01589400 -0.04110400
F -0.36960800 -1.00784100 0.71254900
F -0.33347100 -0.13995000 -1.30983200
S 2.30614600 -0.01448300 0.06661900
O 2.27661600 -0.57265600 1.39308000
O 2.26799900 -0.73177700 -1.17998200
O 3.70501200 0.76236600 -0.09421600
F 1.66286600 1.83301300 0.36387600
F -0.62069200 2.28613600 -0.23663500
F -0.35644200 1.48409600 1.74677000
H 3.76258300 1.45765000 0.57413000
12
energy = -1199.62590777
C -0.13517400 1.39056700 0.00162500
C 0.01165800 -0.00902000 0.15394800
F -0.34047300 -0.48142300 1.33830700
F -0.44017200 -0.75702900 -0.84310600
S 2.30202000 -0.17615200 -0.00329500
O 2.20835600 -1.20214900 1.00108800
O 2.23224700 -0.34756000 -1.43076100
O 3.75499000 0.42358100 0.33632800
F 1.80054300 1.72491800 0.22483700
F -0.24052400 1.91516600 -1.15709600
F -0.44230100 2.16012700 0.97513300
H 3.86443000 1.26986500 -0.11675400
12
energy = -1199.6259013299998
C -0.25487200 1.38009700 0.05270000
C 0.00657800 -0.00768700 0.14828700
F -0.25194400 -0.54404500 1.32959700
F -0.43258700 -0.75674500 -0.85369400
S 2.29298000 0.01250000 -0.11672800
O 2.32690100 -1.05076200 0.85196100
O 2.16894700 -0.11508700 -1.54508800
O 3.70991600 0.71319000 0.17927200
F 1.65659100 1.85783200 0.20643100
F -0.45272200 1.93181600 -1.08110500
F -0.57666000 2.09140100 1.06508300
H 3.73322200 1.57912800 -0.24851900
12
energy = -1199.62589576
C -0.23714400 1.37084900 0.22298900
C 0.00740400 0.01611400 -0.10589800
F -0.42062700 -0.88501700 0.76736300
F -0.27876000 -0.31572500 -1.35403800
S 2.29888300 -0.02582100 0.11242100
O 2.20074900 -0.38785200 1.50207500
O 2.30250900 -0.91434100 -1.01929900
O 3.71701300 0.70394000 -0.09322800
F 1.67675400 1.85313400 0.11482300
F -0.56868900 2.24232500 -0.65164800
F -0.40910100 1.72888000 1.43595800
H 3.75666100 1.48818600 0.46965500
12
energy = -1199.6258875700003
C -0.12567700 1.37205300 -0.28276300
C 0.01024900 0.01447400 0.09467700
F -0.38190900 -0.26377900 1.32706600
F -0.41302600 -0.88277300 -0.78491000
S 2.30362000 -0.17252200 0.04007000
O 2.17457600 -1.02398000 1.19258300
O 2.27827800 -0.57005800 -1.34314600
O 3.74803700 0.47492200 0.32442400
F 1.80229300 1.73931500 -0.05199200
F -0.19128100 1.70560100 -1.51298500
F -0.46150000 2.28625200 0.54536400
H 3.87694000 1.23567900 -0.25698100
12
energy = -1199.62589427
C -0.25385000 1.36753300 -0.23213200
C 0.00503300 0.01203000 0.08255700
F -0.31143000 -0.34471100 1.31643700
F -0.38149800 -0.88213300 -0.81681900
S 2.30223600 0.01350500 -0.06860700
O 2.28890600 -0.89132300 1.05002800
O 2.25099700 -0.32955000 -1.46561000
O 3.70074600 0.76457500 0.18855300
F 1.64713300 1.88112900 -0.06128900
F -0.39731200 1.74205300 -1.44382800
F -0.62589200 2.21884400 0.64606800
H 3.74306000 1.55714900 -0.36233600
12
energy = -1199.6259131700003
C -0.22294400 1.38875600 -0.05976200
C 0.01488100 -0.00227200 -0.16971500
F -0.46557800 -0.75763100 0.80826900
F -0.22135900 -0.51575100 -1.36577000
S 2.29304800 -0.03020000 0.15736600
O 2.12749900 -0.17685600 1.57971600
O 2.33338200 -1.07921900 -0.82646600
O 3.73053800 0.64732900 -0.08904600
F 1.70082900 1.83201100 -0.15425200
F -0.50349600 2.12114300 -1.06935400
F -0.44128800 1.92716100 1.07666600
H 3.75848100 1.50602000 0.35285300
