%mem=28GB
%nprocshared=8
#P wb97xd/6-311++G(d,p) ! ASE formatted method and basis
Symm(None)
scf(xqc)
pop(None)
freq
opt(CalcFC, Tight)

Gaussian input prepared by ASE

0 1
C                 0.6657221679        3.8059160472        1.8610194111
C                 0.3934545078        3.8635767078        0.3348898412
F                -0.4880674334        4.8275318784        0.0831128963
F                 1.5449445675        4.1197033030       -0.2954282666
S                -0.2343027972        2.1713736602       -0.3077895721
O                 0.9656734254        0.0000000000        0.0000000000
O                -0.4069769465        2.3732456796       -1.7443263263
O                 1.2422391943        1.3943354574        0.0000000000
F                -0.4656446452        3.7314829832        2.5427755326
F                 1.4089415393        2.7289209446        2.1334729284
F                 1.3304574645        4.8901676987        2.2437596346
H                 0.0000000000        0.0000000000        0.0000000000


