12
energy = 0
C -1.11654323 -0.04995601 1.05450248
C -0.35736337 0.61214489 0.08588766
F -0.49352232 0.28606010 -1.18302583
F -0.26451770 1.93369885 0.13801399
S 1.91016228 -0.03661752 0.54368975
O 2.39165300 0.74976562 1.65067881
O 2.40705463 -1.18506380 -0.15048697
O 1.94398460 1.10643496 -0.65674033
F -1.28275000 0.36377845 2.24883330
F 0.67646228 -1.01384237 1.57935922
F -1.63372684 -1.20524740 0.91637119
H 1.86952968 2.03687622 -0.40878627
12
energy = 0
C -1.12923561 -0.08413397 1.02638787
C -0.36318347 0.60224737 0.08034816
F -0.46424121 0.28933519 -1.19514598
F -0.29272538 1.92424830 0.15240053
S 1.90838752 -0.02898511 0.54258052
O 2.57726601 0.70123908 1.58901768
O 2.22115216 -1.21696809 -0.19130428
O 1.91885766 1.13698988 -0.63603647
F -1.38310204 0.34185309 2.20082980
F 0.69690927 -0.85753294 1.72386130
F -1.56122409 -1.27410379 0.88995062
H 1.92156218 2.06384299 -0.36459275
12
energy = 0
C -1.13362449 -0.12110581 1.00093770
C -0.37696585 0.57864272 0.05713361
F -0.44267772 0.25260400 -1.21738312
F -0.34348353 1.90245153 0.12233870
S 1.90003144 -0.02045156 0.53516857
O 2.78323237 0.58307784 1.50024150
O 1.99357178 -1.22238733 -0.23574862
O 1.88506041 1.20676505 -0.57948886
F -1.46704967 0.33037055 2.14558781
F 0.71242911 -0.65717853 1.85189747
F -1.46811108 -1.34554201 0.90027870
H 2.00801023 2.11078555 -0.26266647
