%mem=28GB
%nprocshared=8
#P am1 
Symm(None)
scf(xqc)
pop(None)
force

Gaussian input prepared by ASE

0 1
C                -0.9159326088       -0.4484723732        1.0628905863
C                 0.0801331450        0.4677496986        0.3197671798
F                -0.2031414584        0.5472179716       -0.9695276251
F                -0.0510746421        1.7384215646        0.7464388114
S                 1.9159006623       -0.0261954116        0.6394137068
O                 1.8580886431        2.5982654010        1.1715083088
O                 2.0628998449       -1.3997911936        0.1893020618
O                 2.5899871435        0.7032243257       -0.6322920324
F                -1.0321376518       -1.6488875906        0.5198589793
F                -0.5708185866       -0.6556117347        2.3333318333
F                -2.1481294325        0.0451785822        1.1140083190
H                 2.4646469415        1.6769347599       -0.6764051290


