%mem=28GB
%nprocshared=8
#P am1 
Symm(None)
scf(xqc)
pop(None)
force

Gaussian input prepared by ASE

0 1
C                -1.1292356066       -0.0841339694        1.0263878682
C                -0.3631834716        0.6022473677        0.0803481559
F                -0.4642412054        0.2893351853       -1.1951459844
F                -0.2927253784        1.9242482981        0.1524005259
S                 1.9083875189       -0.0289851067        0.5425805238
O                 2.5772660058        0.7012390824        1.5890176835
O                 2.2211521557       -1.2169680896       -0.1913042770
O                 1.9188576591        1.1369898835       -0.6360364650
F                -1.3831020368        0.3418530882        2.2008297984
F                 0.6969092676       -0.8575329407        1.7238613037
F                -1.5612240891       -1.2741037856        0.8899506217
H                 1.9215621808        2.0638429870       -0.3645927546


