%mem=28GB
%nprocshared=8
#P wb97xd/6-311++G(d,p) ! ASE formatted method and basis
Symm(None)
scf(xqc)
pop(None)
freq
opt(CalcFC, Tight)

Gaussian input prepared by ASE

0 1
C                 0.2256714585       -0.2722432153        1.5367968395
C                 0.0000000000        0.0000000000        0.0000000000
F                -0.5790950851       -0.9561171755       -0.6692235251
F                -0.5703497722        1.1419591995       -0.2781201679
S                 1.9768644117        0.0000000000        0.0000000000
O                 1.6048020563       -0.2615339035        1.6078998271
O                 3.3604694040       -0.2982008286       -0.2972660156
O                 2.1152599764        1.6598567164        0.0000000000
F                 1.4708617813       -1.5995924522       -0.3915462850
F                -0.2963941857        0.6872745129        2.2934382819
F                -0.2712743926       -1.4371355725        1.9271998685
H                 3.0503410982        1.8903991290        0.0500086380


