12
energy = -1199.6270415
C -0.77379200 0.25153800 -1.32617800
C -0.02696500 0.12461000 0.01900600
F -0.32183400 1.20772800 0.77881100
F -0.46574200 -0.97265100 0.64679000
S 1.91264600 -0.06176100 -0.17085900
O 2.08400200 -0.51513800 1.33369200
O 3.45125800 -0.21503500 0.78244500
O 2.08562500 1.52347300 -0.39453000
F -0.44103700 1.38583500 -1.93892900
F -0.43831900 -0.77229800 -2.11287000
F -2.08885100 0.23793500 -1.14348100
H 1.53933100 2.04844700 0.20731200
12
energy = -1199.6270191
C -0.76304100 0.32576200 -1.24001300
C -0.04296300 0.06225300 0.09969300
F -0.41366600 1.02107400 0.98360900
F -0.43732400 -1.12772500 0.56730000
S 1.90858700 0.00061100 -0.05551700
O 2.06905300 -0.65349900 1.37505300
O 3.42957300 -0.20876300 0.91216100
O 2.00164400 1.60817600 -0.04956100
F -0.46940600 1.54224700 -1.69507600
F -0.36099000 -0.57412100 -2.13887600
F -2.07996600 0.23163000 -1.09948200
H 1.40715700 2.01526100 0.59628900
12
energy = -1199.63241691
C -0.73416500 0.41518800 -1.21687100
C -0.06167700 0.04789800 0.13056400
F -0.42522400 0.92231300 1.06754500
F -0.47896700 -1.18206100 0.48775500
S 1.85400300 -0.14785100 0.03590500
O 2.06286400 -0.34639300 1.58255000
O 3.44272800 -0.09159600 1.04274400
O 1.97357000 1.42264600 -0.33175000
F -0.60795400 1.70506000 -1.48485900
F -0.15351700 -0.28847100 -2.19774300
F -2.02676600 0.10998300 -1.18698600
H 2.90104000 1.67492900 -0.22865600
12
energy = -1199.62742983
C -0.74203900 -1.23381200 0.36544200
C -0.00828700 0.01917100 -0.15929100
F -0.31931700 0.18706000 -1.45485600
F -0.44399900 1.10119100 0.52683200
S 1.94125600 -0.09208400 -0.10899000
O 2.01320600 -0.46882600 1.41778700
O 3.41768100 -0.15165200 0.97185200
O 2.05074500 1.49187900 -0.36966000
F -0.19216800 -2.31911300 -0.18727400
F -0.63992300 -1.32375100 1.68434800
F -2.02951200 -1.19713100 0.03787500
H 1.46867800 2.00597100 0.20831100
12
energy = -1199.6275817700002
C -0.74104800 -1.26653700 0.37017200
C -0.04111800 0.06164100 0.00981400
F -0.38081400 0.39890800 -1.24483800
F -0.48326800 1.03021100 0.84541100
S 1.91094000 -0.01397400 0.01159300
O 2.01910200 -0.59890600 1.46916200
O 3.40843000 -0.19259100 1.04871200
O 1.98535100 1.59280700 -0.02610700
F -0.18153500 -2.25437800 -0.33470400
F -0.61221600 -1.53341700 1.66250300
F -2.03499000 -1.21281300 0.07165700
H 1.39982300 2.00817600 0.62337100
12
energy = -1199.6317600099999
C -0.73980400 -1.25282700 0.35269200
C -0.04728800 0.09213200 0.02305400
F -0.37003100 0.43513800 -1.23704500
F -0.48220100 1.02779700 0.86403400
S 1.88028200 -0.06517700 0.02436000
O 2.05769300 -0.48277300 1.52727900
O 3.44725400 -0.11293700 1.08340400
O 1.95022800 1.54534500 -0.09749900
F -0.18324000 -2.22336500 -0.38035600
F -0.59663000 -1.55297800 1.63653500
F -2.03442900 -1.19282600 0.06665400
H 2.86409900 1.80033400 0.08825600
12
energy = -1199.62702679
C -0.77542100 0.87874600 0.93112100
C -0.02046900 -0.10456400 0.00608200
F -0.34273900 -1.35926300 0.36769300
F -0.42801200 0.09776500 -1.25782700
S 1.92604100 -0.07792200 -0.03343200
O 2.08903800 -0.04979400 1.53194300
O 3.46657800 0.12849400 0.94601400
O 2.01284200 1.38086800 -0.70432800
F -0.59636700 0.56835100 2.20342200
F -0.30375000 2.12958400 0.73109700
F -2.07361200 0.88743800 0.66488600
H 1.56219400 2.06475900 -0.18992500
12
energy = -1199.6270747700003
C -0.81471800 0.80806300 1.05978500
C -0.02380600 -0.05174700 0.04603700
F -0.34368400 -1.34292800 0.24471700
F -0.39723600 0.29847200 -1.19592800
S 1.92275000 -0.00828000 0.06701700
O 2.04127200 -0.16846500 1.62878400
O 3.43239000 0.08785100 1.10790000
O 2.01394600 1.52139200 -0.42036600
F -0.66899700 0.34778300 2.29027000
F -0.35008400 2.07696400 1.02579600
F -2.10478400 0.84035500 0.75823800
H 1.54160800 2.13522600 0.15886300
12
energy = -1199.63255494
C -0.79216600 0.95573700 0.93194300
C 0.00017800 -0.00061900 0.00140500
F -0.32358700 -1.26733800 0.31254800
F -0.35760600 0.23407000 -1.27241100
S 1.92167200 -0.00147800 0.00072500
O 2.15342200 -0.52517900 1.46496300
O 3.50590000 -0.06121200 1.00203300
O 1.92040600 1.61629900 -0.00151400
F -0.30954200 0.89657900 2.16899100
F -0.72998600 2.20591100 0.49733100
F -2.07207900 0.58331700 0.95798900
H 2.82932100 1.90733900 0.15173100
