%mem=28GB
%nprocshared=8
#P wb97xd/6-311++G(d,p) ! ASE formatted method and basis
Symm(None)
scf(xqc)
pop(None)
freq
opt(CalcFC, Tight)

Gaussian input prepared by ASE

0 1
C                -0.7921069474       -1.2846644898        0.3619720213
C                 0.0000000000        0.0000000000        0.0000000000
F                -0.3227526944        0.3640908440       -1.2527892976
F                -0.3586630983        0.9854885682        0.8400090885
S                 1.9214702311        0.0000000000        0.0000000000
O                 2.1496886965       -0.5263118439        1.4635299875
O                 3.5044424276       -0.0643562681        1.0043667967
O                 1.9228348967        1.6177724188        0.0000000000
F                -0.3036882257       -2.3274945960       -0.3018523575
F                -0.7369881882       -1.5293830374        1.6630351013
F                -2.0703454285       -1.1244832435        0.0185589424
H                 1.6024311085        1.9082439773       -0.8644531094


