%mem=28GB
%nprocshared=8
#P wb97xd/6-311++G(d,p) ! ASE formatted method and basis
Symm(None)
scf(xqc)
pop(None)
freq
opt(CalcFC, Tight)

Gaussian input prepared by ASE

0 1
C                -0.7921069474        0.9558092108        0.9315660729
C                 0.0000000000        0.0000000000        0.0000000000
F                -0.3227526944       -1.2669927793        0.3110827286
F                -0.3586630983        0.2347249260       -1.2734626794
S                 1.9214702311        0.0000000000        0.0000000000
O                 2.1496886965       -0.5263118439        1.4635299875
O                 3.5044424276       -0.0643562681        1.0043667967
O                 1.9228348967        1.6177724188        0.0000000000
F                -0.3036882257        0.9023354883        2.1665956261
F                -0.7369881882        2.2049221638        0.4929670119
F                -2.0703454285        0.5783141373        0.9645515838
H                 1.6024311085        1.9082439773       -0.8644531094


