%mem=28GB
%nprocshared=8
#P wb97xd/6-311++G(d,p) ! ASE formatted method and basis
Symm(None)
scf(xqc)
pop(None)
opt(CalcAll, Tight,Cartesian)

Gaussian input prepared by ASE

0 1
C                 0.0507340000        0.0201640000        1.6138610000
C                 0.1967310000       -0.0939670000        0.0144020000
F                -0.2308480000       -1.2318670000       -0.4759880000
F                -0.3954230000        0.9183390000       -0.6154190000
S                 2.0005990000        0.1202230000       -0.4519720000
O                 1.1863950000        0.3454280000        2.2450190000
O                 2.1930210000        0.3454130000       -1.8369760000
O                 2.5302840000        1.0579970000        0.5527960000
F                 2.6233430000       -1.3032730000       -0.0831150000
F                -0.9507600000        0.9163100000        1.8510220000
F                -0.4335220000       -1.1737970000        2.0305410000
H                 1.9091390000        0.7510490000        1.6504180000


