12
energy = -1199.67929168
C 0.21472600 -0.23070700 1.53098400
C -0.11001700 -0.07181400 -0.00397400
F -0.70412800 -1.08455100 -0.56861800
F -0.72479900 1.03557300 -0.32422600
S 1.86268300 -0.03069200 -0.12647200
O 1.59493600 -0.18629600 1.51547000
O 3.25769200 -0.08677400 -0.50401400
O 1.68259100 1.62166000 -0.23330800
F 1.64698800 -1.71955700 -0.38894900
F -0.28441100 0.76847000 2.25087200
F -0.22829800 -1.37543200 2.03069700
H 2.55804800 2.02494200 -0.26470300
12
energy = -1199.6792669400002
C 0.23283200 -0.25690300 1.53680100
C 0.02088200 0.04237500 0.00320700
F -0.62243000 -0.86794400 -0.67129500
F -0.47363500 1.22174800 -0.26385500
S 1.99369000 -0.08893600 -0.00424100
O 1.60976900 -0.33979200 1.60252300
O 3.39969800 -0.24481200 -0.30508300
O 1.96543700 1.57637600 0.00961200
F 1.64885900 -1.72686400 -0.41150900
F -0.22073800 0.72939900 2.30311500
F -0.34012800 -1.38883000 1.92000000
H 2.87292200 1.89885100 0.05991300
