%mem=28GB
%nprocshared=8
#P M062X/Def2TZVPP ! ASE formatted method and basis
Symm(None)
scf(xqc)
pop(None)
freq
opt(CalcFC)

Gaussian input prepared by ASE

0 1
C                 1.5439038212        0.0000000000        0.0000000000
O                 2.1987467015       -0.9911963501        0.0003820768
C                 0.0000000000        0.0000000000        0.0000000000
F                -0.4608981563        0.6303844329       -1.0773112710
F                -0.4584703453       -1.2371087704       -0.0024470412
F                -0.4601887992        0.6258882392        1.0803005671
O                 1.9950290041        1.2498921488        0.0000000000
H                 1.6678140818        1.6928756916       -0.7949650261


