8
energy = -526.807894557
C 1.56729300 0.04090500 0.07669800
O 2.15263300 -0.78828500 0.68648200
C 0.01663500 0.02384200 0.03119100
F -0.45880400 1.04264200 -0.70612200
F -0.41446000 -1.10519700 -0.50619400
F -0.47991800 0.13656900 1.25180500
O 2.14798000 1.02629600 -0.60094600
H 1.49457700 1.59396300 -1.02695400
8
energy = -526.8078934200001
C 1.56708800 0.04157300 -0.07767600
O 2.15269500 -0.78509700 -0.69049600
C 0.01647800 0.02391500 -0.03143100
F -0.48056800 0.13665800 -1.25179900
F -0.41440000 -1.10509200 0.50621400
F -0.45859300 1.04279800 0.70603300
O 2.14771900 1.02486400 0.60345400
H 1.49438500 1.59152600 1.03089700
8
energy = -526.812756917
C 1.54394000 -0.00011700 -0.00011000
O 2.19882400 -0.99129500 -0.00128000
C -0.00000500 -0.00004400 0.00012200
F -0.46057900 0.62961800 -1.07774600
F -0.45866200 -1.23712000 -0.00143900
F -0.46022500 0.62676200 1.07981100
O 1.99492700 1.24983900 0.00120300
H 2.96172700 1.22604300 0.00105800
