%mem=28GB
%nprocshared=8
#P M062X/Def2TZVPP ! ASE formatted method and basis
Symm(None)
scf(xqc)
pop(None)
freq
opt(CalcFC)

Gaussian input prepared by ASE

0 2
C                -0.0901460000        0.0156320000        0.0037290000
C                -0.6146690000        0.3897340000        1.3750880000
F                -1.9452920000        0.3007260000        1.4260540000
F                -0.1086990000       -0.4271650000        2.2880850000
F                -0.2709200000        1.6371590000        1.6625380000
F                -0.4633030000        0.8383720000       -0.9476770000
F                -0.2982920000       -1.2389360000       -0.3183810000


