%mem=28GB
%nprocshared=8
#P M062X/Def2TZVPP ! ASE formatted method and basis
Symm(None)
scf(xqc)
pop(None)
freq
opt(CalcFC)

Gaussian input prepared by ASE

0 1
C                -0.5875220000        0.6639920000       -0.5644000000
C                -0.8507740000        0.1025550000        0.8355390000
F                -1.8217170000       -0.7972550000        0.8173850000
F                 0.2555990000       -0.4679510000        1.3034520000
F                -1.1957650000        1.0908530000        1.6557490000
F                -1.7172810000        1.2264140000       -1.0194960000
F                -0.2493460000       -0.3497420000       -1.3754650000
H                 0.2131810000        1.4043680000       -0.5409280000


