%mem=28GB
%nprocshared=8
#P M062X/Def2TZVPP ! ASE formatted method and basis
Symm(None)
scf(xqc)
pop(None)
freq
opt(CalcFC)

Gaussian input prepared by ASE

0 1
C                 1.5423618679        0.0000000000        0.0000000000
C                 0.0000000000        0.0000000000        0.0000000000
F                -0.4458547357       -1.2484258370       -0.0015221783
F                -0.4564443089        0.6170357312        1.0797005368
F                -0.4564546457        0.6197050640       -1.0781434837
F                 1.9706451380       -0.6823935652       -1.0778741968
F                 1.9705976020       -0.6824206331        1.0778589724
O                 1.9800967445        1.2692559101        0.0000000000
H                 1.6555332512        1.7244137806        0.7862457403


