9
energy = -651.2952563710002
C 1.52999700 0.01091300 0.00197300
C -0.01505100 -0.02669800 0.01097100
F -0.46492000 -1.26827500 -0.05194700
F -0.48366900 0.54887400 1.10672000
F -0.46708300 0.64889500 -1.04957000
F 1.93691500 -0.69616600 -1.07014200
F 1.97785800 -0.59210700 1.09743500
O 2.01982400 1.26918700 -0.01658400
H 1.72843300 1.72191900 -0.81619500
9
energy = -651.29525527
C 1.52982600 0.01118800 -0.00226900
C -0.01521400 -0.02674000 -0.01117600
F -0.46481900 -1.26845900 0.05082100
F -0.46730600 0.64794400 1.04991800
F -0.48403600 0.54957800 -1.10644600
F 1.97773000 -0.59090700 -1.09822200
F 1.93698000 -0.69661600 1.06927800
O 2.01939000 1.26955200 0.01720400
H 1.72793000 1.72163100 0.81715900
9
energy = -651.29655725
C 1.54236200 0.00000000 0.00000000
C 0.00000000 0.00000000 0.00000000
F -0.44585500 -1.24842600 -0.00152200
F -0.45644400 0.61703600 1.07970100
F -0.45645500 0.61970500 -1.07814300
F 1.97064500 -0.68239400 -1.07787400
F 1.97059800 -0.68242100 1.07785900
O 1.98009700 1.26925600 0.00000000
H 2.94476300 1.27979100 0.00111300
