10
energy = -664.7013403340002
C 1.48324800 -0.03742000 -0.19523400
O 2.05891900 -1.06686000 -0.00352000
C 0.06578300 0.08691400 0.18474600
C -0.90912000 1.22056400 0.05403500
F -1.92783400 0.88976300 -0.73313900
F -1.40665400 1.56256700 1.23746100
F -0.32217600 2.30803500 -0.47312900
F -0.48319700 -0.97095300 0.71996900
O 2.08382200 1.02275000 -0.74930100
H 1.49630700 1.78035600 -0.83656700
10
energy = -664.701340297
C 1.48321800 -0.03768800 0.19562100
O 2.05885100 -1.06707100 0.00350500
C 0.06602700 0.08720400 -0.18528300
C -0.90888800 1.22073600 -0.05367200
F -1.92751400 0.88938300 0.73340300
F -0.32187700 2.30782500 0.47422000
F -1.40655100 1.56356300 -1.23678800
F -0.48279300 -0.97017100 -0.72164800
O 2.08355800 1.02196000 0.75090800
H 1.49608200 1.77957900 0.83834800
10
energy = -664.7085100730001
C 1.45718900 -0.00003400 -0.00007800
O 2.11812500 -1.00094300 -0.00043000
C -0.00000700 0.00009800 -0.00014700
C -0.88967200 1.21741500 0.00026400
F -2.16344700 0.84529600 0.00010100
F -0.67406500 1.97425600 1.07582600
F -0.67401400 1.97501900 -1.07475200
F -0.60066800 -1.15655400 -0.00063800
O 1.94384100 1.24957900 0.00042400
H 2.90809500 1.19066100 0.00045300
