%mem=28GB
%nprocshared=8
#P M062X/Def2TZVPP ! ASE formatted method and basis
Symm(None)
scf(xqc)
pop(None)
freq
opt(CalcFC)

Gaussian input prepared by ASE

0 2
C                 1.5461575816        0.0000000000        0.0000000000
O                 2.2041013176       -0.9885600670        0.0326741285
C                 0.0000000000        0.0000000000        0.0000000000
C                -0.5889268974        0.8515940148       -1.1086930816
F                -0.1778424694        2.1017655977       -1.0859982433
F                -0.5087063499        0.3377544606       -2.3123725127
F                -0.4482267411       -1.2576419042       -0.1496814668
F                -0.4207030945        0.4853443146        1.1704554015
O                 2.0003964672        1.2517902355        0.0000000000
H                 1.6939932532        1.6878194999       -0.8071793731


