%mem=28GB
%nprocshared=8
#P M062X/Def2TZVPP ! ASE formatted method and basis
Symm(None)
scf(xqc)
pop(None)
freq
opt(CalcFC)

Gaussian input prepared by ASE

0 2
C                 1.4570606725        0.0000000000        0.0000000000
O                 2.1181390575       -1.0008455004       -0.0001244522
C                 0.0000000000        0.0000000000        0.0000000000
C                -0.8896470421        1.2173691772        0.0003117917
F                -2.1635290504        0.8455625727       -0.0011872495
F                -0.6747507888        1.9734473409        1.0764529030
F                -0.6729336458        1.9755205046       -1.0740016671
F                -0.6006480560       -1.1566599681        0.0002013570
O                 1.9437143168        1.2496328123        0.0000000000
H                 1.6216918114        1.6916899318       -0.7963306971


