10
energy = -664.681276897
C 1.56873000 0.09233600 -0.25594900
O 2.03708000 -0.77143100 -0.92001100
C 0.03090000 0.18764900 -0.06911000
C -0.66737400 0.63105000 -1.33691600
F -0.25417500 1.80640300 -1.76794500
F -0.69708800 -0.25801600 -2.29415900
F -0.44551700 -1.00113200 0.30086600
F -0.25640700 1.09778700 0.89693300
O 2.27496700 1.05619800 0.32670800
H 1.70912800 1.62902200 0.85878700
10
energy = -664.6813145450002
C 1.56390900 0.11777600 -0.06654600
O 2.11474800 -0.60083500 -0.83263300
C 0.01319800 0.13860800 0.00349400
C -0.60736000 0.71904800 -1.24893200
F -0.20778700 1.95005400 -1.49964500
F -0.53933300 -0.04297200 -2.30804800
F -0.43720200 -1.10448900 0.17908500
F -0.38704900 0.90287600 1.05238300
O 2.18673700 0.97030400 0.74081700
H 1.55911700 1.43447000 1.30824300
10
energy = -664.684878299
C 1.54634900 -0.01250800 -0.03790500
O 2.16407900 -1.00367900 -0.25525100
C 0.00229400 0.03768900 0.02464900
C -0.61030300 0.79114100 -1.14081100
F -0.48687800 2.09560400 -1.09144500
F -0.26115800 0.31455200 -2.31698800
F -0.46047000 -1.21452200 0.00475600
F -0.38078900 0.63798900 1.16391500
O 2.04835800 1.20734200 0.14447400
H 3.01172000 1.15433800 0.07633500
10
energy = -664.6812910110001
C 1.55814300 0.04717800 0.17878500
O 2.16103200 -0.64630100 0.92871600
C 0.00577700 0.02524800 0.17635000
C -0.54621300 -1.29563900 -0.31456900
F -0.14203300 -1.60342500 -1.53100900
F -0.41246100 -2.29709700 0.51380200
F -0.44039800 0.25333600 1.41254700
F -0.46411500 0.99841300 -0.64624900
O 2.12288700 0.84425800 -0.72237100
H 1.45762400 1.34645500 -1.20872200
10
energy = -664.681320452
C 1.56933700 0.08125900 -0.16039300
O 2.22117500 -0.51190600 -0.95412500
C 0.02003200 0.06427500 -0.25777600
C -0.55531400 -1.30625300 0.02678700
F -0.36206400 -2.19643000 -0.90982200
F -0.22947500 -1.76482400 1.21899500
F -0.50491700 0.92691400 0.65038300
F -0.34921300 0.44847500 -1.48061100
O 2.07295500 0.75354400 0.86958700
H 1.37646200 1.19234500 1.37327000
10
energy = -664.684475765
C 1.54511300 0.00729600 0.00063900
O 2.20115800 -0.98529600 -0.06124200
C 0.00057300 -0.00304500 -0.02923300
C -0.58165700 -1.39323500 -0.14569500
F -0.32462500 -2.00011000 -1.28004000
F -0.36650100 -2.16472600 0.89329600
F -0.45894400 0.55937100 1.10116900
F -0.41767000 0.72475600 -1.07837600
O 2.00443900 1.24881500 0.10201700
H 2.97131600 1.21667800 0.11726900
10
energy = -664.6812568230001
C 1.57528800 0.11323300 0.05874700
O 2.16374000 -0.67581000 0.72049300
C 0.02365600 0.08626800 0.01249800
C -0.59462500 0.46040700 1.34219600
F -0.48589200 -0.44215300 2.28053400
F -0.23030400 1.65580300 1.76179000
F -0.42174200 0.97530300 -0.91260100
F -0.38581500 -1.13558400 -0.33219700
O 2.15459800 1.08109000 -0.64413200
H 1.50133900 1.59230000 -1.13732900
10
energy = -664.6813004320001
C 1.58061400 0.12279000 0.24602600
O 2.11273500 -0.77042300 0.81675300
C 0.03495100 0.14318800 0.10238200
C -0.65950800 0.34933600 1.43123300
F -0.62341200 -0.67394000 2.24275800
F -0.30383700 1.46812000 2.03097100
F -0.33481900 1.16146600 -0.71671700
F -0.37385900 -1.00908200 -0.43064400
O 2.21900700 1.16987000 -0.26643700
H 1.60710600 1.76450800 -0.71731300
10
energy = -664.684845906
C 1.54609600 -0.00100900 -0.00141400
O 2.20444700 -0.98954700 0.02066600
C -0.00013300 -0.00105000 0.00044000
C -0.58837400 0.53545700 1.29164800
F -0.17349700 -0.10513200 2.36412300
F -0.51184600 1.83541100 1.44468400
F -0.44876100 0.75595100 -1.01492600
F -0.42101800 -1.25753700 -0.16258700
O 1.99981900 1.25096800 0.00906500
H 2.96646800 1.22542400 0.03082500
