%mem=28GB
%nprocshared=8
#P M062X/Def2TZVPP ! ASE formatted method and basis
Symm(None)
scf(xqc)
pop(None)
freq
opt(CalcFC)

Gaussian input prepared by ASE

0 1
C                 1.5413014519        0.0000000000        0.0000000000
C                 0.0000000000        0.0000000000        0.0000000000
C                -0.5294443431        1.4444524941       -0.0846636169
F                -1.8517738290        1.4526253256       -0.1587657464
F                -0.1573213542        2.1470684489        0.9733443288
F                -0.0360768763        2.0241154357       -1.1795926753
F                -0.5727171358       -0.6969283068       -0.9990859877
F                -0.4046306506       -0.5364966128        1.1655740344
O                 1.9018362286        1.2344027701        0.0000000000
H                 2.8676485036        1.2849591379       -0.0062745024


