%mem=28GB
%nprocshared=8
#P M062X/Def2TZVPP ! ASE formatted method and basis
Symm(None)
scf(xqc)
pop(None)
freq
opt(CalcFC)

Gaussian input prepared by ASE

0 1
C                 1.5413014519        0.0000000000        0.0000000000
C                 0.0000000000        0.0000000000        0.0000000000
C                -0.5294443431       -0.6489054040        1.2932643629
F                -1.8517738290       -0.5888174932        1.3373933073
F                -0.1573213542       -1.9164751399        1.3727436560
F                -0.0360768763        0.0094995051        2.3427317252
F                -0.5727171358        1.2136979992       -0.1040146244
F                -0.4046306506       -0.7411684174       -1.0474067130
O                 1.9018362286        1.2344027701        0.0000000000
H                 2.8676485036        1.2849591379       -0.0062745024


