10
energy = -689.2791245110001
C 1.56398200 0.79035800 0.43507700
C 0.11226100 0.38722100 0.07076800
C -0.83486000 1.59574300 0.14202900
F -2.05300700 1.25881700 -0.25597900
F -0.90081600 2.06551500 1.37451700
F -0.37051000 2.55085200 -0.66382800
F -0.00174200 -0.13226200 -1.18683700
F -0.29455900 -0.55003100 0.93431000
O 2.33273500 0.56949800 -0.56354800
H 1.88568300 0.20392200 -1.35716100
10
energy = -689.2791235870001
C 1.47066200 0.68763400 0.77582600
C 0.08603500 0.36942000 0.15620100
C -0.85697600 1.57962900 0.25011600
F -2.00573400 1.32454500 -0.35899900
F -1.09925900 1.88645500 1.51148200
F -0.27777900 2.62087000 -0.34803800
F 0.15400000 0.02129200 -1.16250600
F -0.44622900 -0.66285300 0.82005200
O 2.37631500 0.57931200 -0.12132100
H 2.04856400 0.33028300 -1.01226800
10
energy = -689.2796323470001
C 1.56682400 -0.03970000 0.04675400
C 0.02714800 0.08827600 0.01523800
C -0.62714000 1.47951500 -0.08653800
F -1.94997900 1.36995200 -0.10086500
F -0.28099300 2.23079600 0.95372800
F -0.24579400 2.08925800 -1.20434000
F -0.39507900 -0.62701400 -1.04187500
F -0.42693500 -0.48204600 1.14495400
O 2.06255400 1.14788400 -0.01753200
H 3.02821600 1.09727900 0.00101200
10
energy = -689.279120014
C 1.57805700 -0.01383800 -0.05908900
C 0.02823100 0.01120800 -0.06547300
C -0.53715100 -0.84001400 -1.21371500
F -1.85755000 -0.74054100 -1.26243700
F -0.03222600 -0.39531300 -2.36460500
F -0.20794400 -2.10960600 -1.05998000
F -0.40661800 -0.47194300 1.10375200
F -0.48867900 1.26668500 -0.21124500
O 2.02598600 1.17236200 -0.22927600
H 1.33706000 1.86312900 -0.33691500
10
energy = -689.2791112450001
C 1.55805800 -0.07241400 0.15343800
C 0.00943600 -0.05996600 0.08799600
C -0.49917900 -0.74965500 -1.18804700
F -1.81781700 -0.65428900 -1.27637900
F 0.04478800 -0.14744100 -2.24577000
F -0.15979300 -2.02586300 -1.19620400
F -0.46373700 -0.70315800 1.16124600
F -0.51875900 1.19928400 0.09522500
O 1.99531700 1.12987500 0.16542900
H 1.30128400 1.82270800 0.12527900
10
energy = -689.280460375
C 1.52829200 0.01354400 0.05172200
C -0.01256000 0.01521800 0.01484000
C -0.51318700 -0.78753800 -1.20152100
F -1.83352600 -0.72918000 -1.28745700
F 0.01098800 -0.26602800 -2.31135000
F -0.14735100 -2.05632900 -1.11360000
F -0.44461700 -0.59104400 1.13545500
F -0.58332500 1.23280200 -0.04514400
O 1.89424400 1.23794100 -0.09170300
H 2.85986500 1.28730800 -0.06903800
10
energy = -689.279113146
C 1.57152900 -0.07690000 -0.07901700
C 0.02161200 -0.06781800 -0.05516900
C -0.51750700 -0.61238100 1.27723600
F -1.83868600 -0.52023500 1.31890100
F -0.17021600 -1.87599500 1.44035600
F -0.00684000 0.11177600 2.27329600
F -0.51118900 1.17881100 -0.21827300
F -0.42074200 -0.83143300 -1.06056800
O 2.00427500 1.11927500 -0.21595400
H 1.30693000 1.80752700 -0.27355800
10
energy = -689.2791586170001
C 1.58953100 -0.02941000 0.12161300
C 0.04024600 0.00473700 0.09088900
C -0.55572700 -0.71134000 1.31344000
F -1.87579900 -0.59691500 1.32392300
F -0.23624900 -1.99267300 1.30581300
F -0.06892200 -0.14756000 2.41903100
F -0.46987300 1.27151600 0.08587100
F -0.37379300 -0.60208700 -1.02705300
O 2.04304700 1.16571800 0.16986900
H 1.35713800 1.86759500 0.18505300
10
energy = -689.280468369
C 1.54107400 -0.00019700 -0.00056100
C -0.00020600 0.00006300 -0.00022200
C -0.52929100 -0.64882400 1.29317200
F -1.85167600 -0.58961300 1.33727400
F -0.15627600 -1.91611000 1.37312500
F -0.03645700 0.01034200 2.34238100
F -0.57278400 1.21386500 -0.10371000
F -0.40529400 -0.74080700 -1.04767000
O 1.90195600 1.23408000 0.00037300
H 2.86777700 1.28439300 -0.00572500
