%mem=28GB
%nprocshared=8
#P M062X/Def2TZVPP ! ASE formatted method and basis
Symm(None)
scf(xqc)
pop(None)
freq
opt(CalcFC)

Gaussian input prepared by ASE

0 1
C                 1.5413014519        0.0000000000        0.0000000000
C                 0.0000000000        0.0000000000        0.0000000000
C                -0.5294443431       -0.7955470900       -1.2086007460
F                -1.8517738290       -0.8638078324       -1.1786275610
F                -0.1573213542       -0.2305933091       -2.3460879849
F                -0.0360768763       -2.0336149408       -1.1631390499
F                -0.5727171358       -0.5167696925        1.1031006121
F                -0.4046306506        1.2776650302       -0.1181673214
O                 1.9018362286        1.2344027701        0.0000000000
H                 1.5584250328        1.6673469639        0.7937359398


