10
energy = -763.934336683
C 1.53635400 0.04826300 0.00451800
O 2.22076800 -0.86403900 0.34140200
C -0.01538800 0.01003500 -0.00189500
C -0.59663100 0.33794500 1.39040800
F -1.91739300 0.33782900 1.33503200
F -0.19595000 -0.55871100 2.27557400
F -0.17674100 1.53990700 1.76919800
F -0.49603200 0.90658900 -0.87512800
F -0.40969000 -1.21100200 -0.35304400
O 2.00296500 1.21652000 -0.38716700
