%mem=28GB
%nprocshared=8
#P M062X/Def2TZVPP ! ASE formatted method and basis
Symm(None)
scf(xqc)
pop(None)
freq
opt(CalcFC)

Gaussian input prepared by ASE

0 2
C                 1.5363540000        0.0482630000        0.0045180000
O                 2.2207680000       -0.8640390000        0.3414020000
C                -0.0153880000        0.0100350000       -0.0018950000
C                -0.5966310000        0.3379450000        1.3904080000
F                -1.9173930000        0.3378290000        1.3350320000
F                -0.1959500000       -0.5587110000        2.2755740000
F                -0.1767410000        1.5399070000        1.7691980000
F                -0.4960320000        0.9065890000       -0.8751280000
F                -0.4096900000       -1.2110020000       -0.3530440000
O                 2.0029650000        1.2165200000       -0.3871670000


