%mem=28GB
%nprocshared=8
#P M062X/Def2TZVPP ! ASE formatted method and basis
Symm(None)
scf(xqc)
pop(None)
freq
opt(CalcFC)

Gaussian input prepared by ASE

0 1
C                 1.5441508320        0.0000000000        0.0000000000
O                 2.1880701872       -0.9980236103        0.0085068721
C                 0.0000000000        0.0000000000        0.0000000000
C                -0.5940990153        0.9937617878       -1.0222052651
F                -1.9083202659        1.0541225650       -0.8801842830
F                -0.0801525582        2.2013802737       -0.8165307919
F                -0.3136112947        0.6151270789       -2.2605810239
F                -0.4654785740       -1.2241853011       -0.2907605167
F                -0.4301915707        0.3547101671        1.2106522450
O                 2.0112635050        1.2442066754        0.0000000000
H                 1.6772649393        1.6952389547        0.7879880269


