%mem=28GB
%nprocshared=8
#P M062X/Def2TZVPP ! ASE formatted method and basis
Symm(None)
scf(xqc)
pop(None)
freq
opt(CalcFC)

Gaussian input prepared by ASE

0 1
C                 1.3830756258        0.0000000000        0.0000000000
O                 0.0000000000        0.0000000000        0.0000000000
C                 2.0270105595       -1.1450526459        0.1454020824
C                -0.5773278722        1.0672295726        0.6036514154
F                -0.3642543069        2.1966684983       -0.0590536476
F                -1.8703002950        0.8488798934        0.6792006728
F                -0.0959636525        1.2446472331        1.8439765899
F                 3.3295419657       -1.2420429412        0.2128843506
F                 1.4382541181       -2.3069547589        0.2734542199
O                 2.0052476288        1.1923978660        0.0000000000
H                 2.9539648467        1.0738470628        0.1251712724


