11
energy = -764.6118338490002
C 1.57808600 0.09534200 -0.31024100
O 2.00772300 -0.73571100 -1.03729900
C 0.05594300 0.18790300 -0.03544700
C -0.70647900 0.81597000 -1.21946600
F -1.98236100 0.97361600 -0.90443300
F -0.17856700 2.01009600 -1.48548600
F -0.61520100 0.05442900 -2.29273800
F -0.43895500 -1.02486400 0.20078800
F -0.17631900 0.97066700 1.04570200
O 2.32055000 1.01092600 0.30336600
H 1.78732700 1.56938700 0.88207200
11
energy = -764.6118619670001
C 1.56928600 0.10900700 -0.08764800
O 2.09631300 -0.61756000 -0.86109300
C 0.02484700 0.13985500 0.03372000
C -0.63166400 0.88708100 -1.14454700
F -1.93782500 0.97942500 -0.95077400
F -0.11929700 2.11505600 -1.21356500
F -0.40500400 0.25972300 -2.28258400
F -0.45329000 -1.10163200 0.07661700
F -0.34171100 0.78613000 1.16663600
O 2.21680500 0.95344900 0.70837800
H 1.61043600 1.42580400 1.29174400
11
energy = -764.615539755
C 1.54717600 0.01347300 -0.07221200
O 2.11788200 -0.95258100 -0.46199200
C 0.00920600 0.08859400 0.04330100
C -0.62773100 0.96039000 -1.06101400
F -1.94641300 0.86755400 -1.00358100
F -0.28052500 2.23042600 -0.91437000
F -0.21498900 0.53795700 -2.25131400
F -0.49149100 -1.14140000 -0.06914300
F -0.34331200 0.59980400 1.23259600
O 2.10014500 1.16026400 0.30923600
H 3.05955200 1.08357100 0.21148000
11
energy = -764.611798459
C 1.55558800 0.02684900 0.17670300
O 2.17120500 -0.64500100 0.93405800
C 0.00640900 0.00077500 0.18407000
C -0.55211000 -1.28141600 -0.46555700
F -1.87258700 -1.21725400 -0.53120200
F -0.06470500 -1.38498400 -1.70115100
F -0.20334200 -2.34840700 0.22735300
F -0.44433400 0.08161200 1.43398000
F -0.48157500 1.04861600 -0.52240700
O 2.10377000 0.82356800 -0.73474400
H 1.43342600 1.31530300 -1.22457000
11
energy = -764.6118338660001
C 1.54198100 -0.02845100 0.39933500
O 2.14723700 -0.80351800 1.06026600
C -0.00683000 -0.06397600 0.36839300
C -0.54002600 -1.23197800 -0.48552600
F -1.85896900 -1.16334100 -0.57370300
F -0.02194000 -1.14075200 -1.70966600
F -0.20014000 -2.39213200 0.04233200
F -0.48431000 -0.18179000 1.60527500
F -0.48927800 1.07850400 -0.17689700
O 2.10254800 0.89965800 -0.36902100
H 1.43862300 1.45601600 -0.79418600
11
energy = -764.6151964779999
C 1.55113700 -0.00214700 -0.04183700
O 2.21469800 -0.97696700 -0.20231700
C 0.01092000 0.00202800 -0.07206100
C -0.59207200 -1.39354700 -0.32848600
F -1.91610100 -1.29611700 -0.33638500
F -0.19499100 -1.86118800 -1.50165800
F -0.23534200 -2.23518600 0.62918900
F -0.45767400 0.44843200 1.10251300
F -0.41417900 0.82386700 -1.04283600
O 1.99807500 1.22730700 0.18603500
H 2.96502600 1.20347100 0.20054700
11
energy = -764.6118346520001
C 1.57088600 0.05004300 0.02415500
O 2.18526700 -0.84780600 0.49346100
C 0.02185600 0.01589200 0.00370200
C -0.57982700 0.31737900 1.39104000
F -1.89954200 0.37795700 1.30924800
F -0.24108800 -0.61429800 2.26135900
F -0.12053200 1.49526300 1.81177000
F -0.45462600 0.95569900 -0.84784200
F -0.40193400 -1.17984700 -0.39897300
O 2.11966200 1.14460800 -0.49241900
H 1.45162400 1.73622000 -0.85956800
11
energy = -764.6118467950001
C 1.58441000 0.07197500 0.20621900
O 2.14940700 -0.89792100 0.58566700
C 0.03890000 0.08780800 0.09583200
C -0.63717200 0.21308200 1.47595000
F -1.94778800 0.32688800 1.32929700
F -0.37403500 -0.84059700 2.22461100
F -0.17597700 1.30595100 2.08278100
F -0.36571500 1.15005000 -0.64137000
F -0.38695200 -1.02757900 -0.49256900
O 2.18770600 1.20731200 -0.13002700
H 1.55611200 1.86271900 -0.45039100
11
energy = -764.615543537
C 1.54416900 0.00033200 0.00025900
O 2.18879100 -0.99733500 0.01028400
C -0.00009000 -0.00040000 0.00005600
C -0.59403100 0.38809300 1.37161400
F -1.90854500 0.23790100 1.35213900
F -0.08210900 -0.39582500 2.31420500
F -0.31057200 1.64896500 1.66396700
F -0.46601700 0.86315600 -0.91478800
F -0.42995600 -1.22636900 -0.29775700
O 2.01062200 1.24481800 -0.00108200
H 2.97723600 1.20806800 0.01320400
