11
energy = -764.3909544320001
C 1.75913500 1.08843000 -0.18903700
O -0.59277100 1.08321800 0.12413100
C 3.22709900 1.23362200 -0.59311200
C 4.19339900 0.67293500 0.48040100
F 5.44225800 0.84801500 0.08627900
F 3.99856000 1.31237300 1.62304400
F 3.96475200 -0.61800700 0.65395000
F 3.39617100 0.55798900 -1.72455800
F 3.49738400 2.51897200 -0.77811700
O 1.21768300 0.50361400 0.62459500
H -1.43423600 0.84743600 0.53977800
