%mem=28GB
%nprocshared=8
#P M062X/Def2TZVPP ! ASE formatted method and basis
Symm(None)
scf(xqc)
pop(None)
opt(NoFreeze,TS,CalcAll,NoEigentest,MaxCycle=999)

Gaussian input prepared by ASE

0 1
C                 0.9383660000        0.2779310000        0.2579130000
O                 0.1977080000       -0.3808880000       -0.4725440000
C                 1.4800900000        1.4574750000       -0.2782920000
C                 1.0745510000        2.1665760000       -1.5703070000
F                 0.7468860000        3.4184160000       -1.2282110000
F                 2.1198380000        2.2224970000       -2.3772550000
F                 0.0581240000        1.6168210000       -2.1800560000
F                 1.6797740000       -0.7474880000       -1.6115980000
F                 2.4201700000        2.0743690000        0.3421480000
O                 1.4410840000       -0.1279550000        1.4270030000
H                 1.1607050000       -1.0402680000        1.5748720000


