%mem=28GB
%nprocshared=8
#P M062X/Def2TZVPP ! ASE formatted method and basis
Symm(None)
scf(xqc)
pop(None)
opt(NoFreeze,TS,CalcAll,NoEigentest,MaxCycle=999)

Gaussian input prepared by ASE

0 1
C                 1.3926715571        0.0000000000        0.0000000000
O                 0.9721007104       -0.4258595940       -1.3114076097
C                 1.9225634061        1.4195027500        0.0000000000
C                 2.0592100332        2.0091644447        1.4137398003
F                 2.5810432339        3.2257675210        1.3454221432
F                 0.8718765743        2.0841533728        1.9929836256
F                 2.8530506740        1.2443040650        2.1542025220
F                 3.1491561409        1.4965580867       -0.6028147347
F                 1.1028935612        2.1991324542       -0.7193991800
O                 0.0000000000        0.0000000000        0.0000000000
H                -0.3859987866        0.8909976902       -0.1962699718


