11
energy = -764.5437072580002
C 0.11510300 -0.10319800 0.33709400
O 1.38953000 0.10283600 -0.03640200
C 3.47237900 1.09296600 -0.52329600
C 2.03431900 1.32965000 -0.01168900
F 4.13312700 2.24258400 -0.51938000
F 1.44336700 2.21885500 -0.80857000
F 2.10125800 1.83173100 1.22052600
F 4.10039000 0.23308200 0.26265600
F 3.44455700 0.61695900 -1.75787500
O -0.39878000 1.03571500 0.72044600
H -1.31020700 0.87081400 0.98430200
11
energy = -764.540458863
C -0.00402300 -0.19223100 0.32009400
O 1.19407500 0.12296700 -0.19043100
C 1.45762800 2.41237100 -1.01349100
C 1.91734800 1.30172600 -0.03689400
F 2.24042400 3.47169600 -0.86815600
F 1.90183900 1.76519500 1.20867000
F 3.17306900 0.99671500 -0.35083000
F 1.55235800 1.97177400 -2.25874800
F 0.20476400 2.77258600 -0.78133700
O -0.46510400 0.81561300 1.01213000
H -1.32529900 0.55673200 1.35919300
11
energy = -764.540440229
C -0.01062700 -0.12348800 0.28994100
O 1.30607700 0.08195600 0.14965500
C 2.28095000 1.86914200 1.50673400
C 1.99328100 1.29068800 0.09923600
F 3.00003800 2.97552400 1.38464200
F 3.16742100 1.01402700 -0.46045600
F 1.38392100 2.20706500 -0.64607300
F 1.15955300 2.15756700 2.14917700
F 2.96503200 0.98450900 2.21607000
O -0.62357200 1.02445600 0.40882200
H -1.56309200 0.83957900 0.51119000
11
energy = -764.5437162380001
C 0.28509600 -0.41550900 0.52385000
O 1.50174400 -0.06844700 0.07082400
C 3.42187100 1.14975300 -0.54969900
C 1.99927800 1.22522100 0.04719500
F 3.94376100 2.36798400 -0.59281000
F 1.26177800 2.02816500 -0.71855000
F 2.08105500 1.74938200 1.26927400
F 4.19128200 0.37842000 0.20170500
F 3.37575100 0.65767900 -1.77742600
O -0.33374400 0.66139000 0.93060200
H -1.20215600 0.39557900 1.25117500
11
energy = -764.5404422879999
C 0.20197700 -0.42649900 0.41469000
O 1.32840500 0.02125300 -0.15659300
C 1.30418200 2.34011300 -0.93913100
C 1.93362900 1.26627800 -0.01732900
F 1.97897200 3.47349000 -0.81163000
F 1.94534200 1.70350100 1.23765900
F 3.19300700 1.09970500 -0.41072200
F 1.37208400 1.93525200 -2.19817300
F 0.03604800 2.56138600 -0.62902600
O -0.31963700 0.51578100 1.15453100
H -1.12625700 0.16250900 1.54425300
11
energy = -764.5404351310001
C 0.18151800 -0.44052400 0.52756200
O 1.43620900 -0.05622000 0.25587400
C 2.25626900 1.90046000 1.47558000
C 1.93365700 1.23557600 0.11436900
F 2.80010500 3.08979500 1.26132300
F 3.08222400 1.10859700 -0.54370900
F 1.13497600 2.02762100 -0.59352900
F 1.16477600 2.05640500 2.20877700
F 3.11550100 1.14551600 2.14296900
O -0.57811600 0.61193800 0.67538000
H -1.46746100 0.29948700 0.87267100
11
energy = -764.5349481810001
C 0.23053900 -0.39962400 0.46069100
O 1.47688300 -0.04999500 0.00747900
C 3.45371900 1.12873200 -0.55400500
C 2.04643600 1.19205800 0.07583600
F 4.01331000 2.32861400 -0.49175600
F 1.31733400 2.10906500 -0.58291800
F 2.15816200 1.61675100 1.34592700
F 4.20413600 0.26551200 0.10800900
F 3.36360600 0.75738800 -1.81911600
O -0.42683000 0.58039600 0.99446200
H -0.01614900 1.46089200 1.03806100
11
energy = -764.5325761080001
C 0.15706100 -0.43861900 0.36804900
O 1.30680300 0.03727100 -0.20632400
C 1.35648600 2.35371400 -0.92830600
C 1.96393000 1.23391400 -0.05219200
F 2.05500200 3.46776200 -0.78979800
F 1.95950300 1.66387000 1.22920700
F 3.22285800 1.05050800 -0.41505500
F 1.35293200 1.99137500 -2.19593800
F 0.10288300 2.58287000 -0.53653300
O -0.38615700 0.36161600 1.22743600
H 0.05188200 1.20865700 1.41451500
11
energy = -764.5326624500001
C 0.11696600 -0.39092800 0.44008500
O 1.40899000 -0.00367400 0.19788900
C 2.34682800 1.78245000 1.54646300
C 1.98285000 1.24339700 0.14375800
F 2.94923500 2.95464500 1.44012000
F 3.09165700 1.14499400 -0.57104600
F 1.18279100 2.15421100 -0.45398000
F 1.23020900 1.93777600 2.25793700
F 3.14111100 0.93466500 2.16994500
O -0.71424200 0.58553000 0.61199600
H -0.38130700 1.49575500 0.54063000
11
energy = -764.5437096670001
C 0.22465200 -0.42202900 -0.55807500
O 1.52215200 -0.07797100 -0.49622400
C 3.53618300 1.14052400 -0.37004000
C 1.99471200 1.22327800 -0.42308500
F 4.03810900 2.36580200 -0.29899800
F 1.64666200 1.93974700 -1.49100100
F 1.56688100 1.84707600 0.67358000
F 3.91991500 0.45600800 0.69563500
F 3.99873700 0.54857700 -1.45960600
O -0.49882200 0.66617900 -0.53804200
H -1.42413900 0.40261700 -0.58230300
11
energy = -764.5399570930001
C 0.44180300 -0.54838000 -0.76656800
O 1.62076200 -0.01005500 -0.45108500
C 1.43218800 2.41505000 -1.02642600
C 1.83146200 1.29244100 -0.00126100
F 2.34857000 3.37208100 -1.00421400
F 1.21074200 1.51236900 1.15470400
F 3.13983100 1.37164800 0.20537900
F 1.37510300 1.91372300 -2.25319000
F 0.26609900 2.95809900 -0.72435900
O -0.48607600 0.36271700 -0.60452200
H -1.33340700 -0.02673200 -0.84422800
11
energy = -764.540467513
C 0.34969600 -0.36960000 -0.55401500
O 1.60868500 -0.04227300 -0.23264800
C 1.88326300 1.82242700 1.32834500
C 2.15973100 1.22555100 -0.07374500
F 2.50108800 2.99000100 1.43426000
F 3.47521600 1.06188400 -0.17926200
F 1.77184200 2.08434000 -1.01101700
F 0.58738900 2.00571200 1.52905700
F 2.34808900 1.00094900 2.25721800
O -0.36509600 0.71584400 -0.68966100
H -1.26092100 0.44400900 -0.91556600
11
energy = -764.5437326990001
C 0.08506500 -0.11154100 -0.42361700
O 1.41367600 0.09024900 -0.43940600
C 3.55166700 1.08266800 -0.40789300
C 2.02802600 1.32977600 -0.35092100
F 4.18661700 2.24399600 -0.32773100
F 1.69113500 2.12566000 -1.36477700
F 1.74224100 1.94599000 0.79518100
F 3.92760200 0.31602200 0.60324500
F 3.87570200 0.49298900 -1.54754700
O -0.51336300 1.04502500 -0.31290800
H -1.46265300 0.88287500 -0.30341900
11
energy = -764.5404308630001
C -0.02269200 -0.24685600 -0.47860000
O 1.26162500 0.12833500 -0.55222700
C 1.67974400 2.45987400 -1.16492100
C 1.84054800 1.32047200 -0.12835900
F 2.31870200 3.53685300 -0.73148000
F 1.39411000 1.72539900 1.05620400
F 3.14177900 1.06937400 -0.01793300
F 2.20369400 2.08187700 -2.32086900
F 0.40533100 2.76636200 -1.35280300
O -0.73047800 0.71312900 0.05507500
H -1.64461000 0.41204200 0.08851000
11
energy = -764.540441558
C 0.12425300 -0.09885300 -0.43633500
O 1.42794700 0.06230500 -0.17232500
C 2.00870000 1.86919900 1.37297200
C 2.14389200 1.24802600 -0.03931600
F 2.78388800 2.94100100 1.45325500
F 3.42137300 0.91675900 -0.20281400
F 1.82891300 2.15381500 -0.95951500
F 0.75923500 2.22640700 1.62687700
F 2.39459600 0.98690200 2.28200600
O -0.45033100 1.07023300 -0.53893600
H -1.38281000 0.91695000 -0.72453700
11
energy = -764.534929807
C 0.17937200 -0.39733900 -0.41615800
O 1.51122600 -0.07013800 -0.40946300
C 3.57651300 1.09053800 -0.41862100
C 2.03696400 1.19255300 -0.44076300
F 4.09457100 2.31012500 -0.44916300
F 1.66217200 1.85812700 -1.54654900
F 1.63529700 1.92300800 0.61338300
F 3.97059600 0.47956600 0.68497400
F 3.99733500 0.41419500 -1.47313200
O -0.61177800 0.62733100 -0.45562500
H -0.23112100 1.52203100 -0.47687100
11
energy = -764.53495705
C 0.06138300 -0.55227600 -0.84094500
O 0.74173000 0.56917400 -1.24149600
C 1.94253500 2.61052600 -1.30212400
C 1.26358600 1.53638400 -0.42669200
F 2.45056400 3.55248600 -0.52025000
F 0.31177000 2.12283000 0.31920700
F 2.17350700 1.03055300 0.42312100
F 2.91509400 2.06409900 -2.01067100
F 1.05437600 3.15462400 -2.11554800
O -0.07167800 -0.65369300 0.44337000
H 0.30031600 0.03844200 1.01642900
11
energy = -764.5326183610001
C 0.24019400 -0.38505600 -0.40672000
O 1.54045200 -0.07662200 -0.10253100
C 1.96732100 1.87086100 1.28099000
C 2.19499200 1.13042800 -0.05707900
F 2.65951900 2.99723100 1.29995300
F 3.48915300 0.89122200 -0.19194200
F 1.81948900 1.95907800 -1.05663500
F 0.67209600 2.16220800 1.40373800
F 2.33631400 1.11067700 2.29297200
O -0.48910800 0.63008600 -0.74077100
H -0.07533400 1.50891900 -0.76883600
11
energy = -764.5502384350001
C 0.12142400 -0.05375300 0.31334000
O 1.41221000 -0.00427800 -0.06202800
C 3.43514200 1.11674400 -0.51617700
C 1.96519600 1.25577700 -0.06445300
F 4.00493900 2.31297100 -0.53128000
F 1.33151400 2.06597200 -0.90881000
F 1.93899600 1.80366600 1.14806800
F 4.09769800 0.33441900 0.32186600
F 3.49130400 0.59724300 -1.73289900
O -0.17563300 -1.31773400 0.23935700
H -1.09774900 -1.41427800 0.49984900
11
energy = -764.5486800040001
C 0.13781200 -0.15882800 0.47920700
O 1.29327900 0.02583500 -0.17902700
C 1.30803100 2.33017900 -0.95129900
C 1.91300200 1.24883000 -0.02415700
F 1.99346600 3.45680800 -0.82110800
F 1.86846900 1.68004000 1.23014900
F 3.18310200 1.07280100 -0.37331700
F 1.37731500 1.92594500 -2.21178500
F 0.04220200 2.55809300 -0.64161100
O -0.21977500 -1.36481900 0.14143700
H -1.04982500 -1.55498300 0.59073400
11
energy = -764.5486790890001
C 0.04406700 -0.06293900 0.15597500
O 1.38540900 -0.03076800 0.10635400
C 2.10117600 1.88641200 1.41492000
C 1.97923100 1.21216300 0.02747100
F 2.74987300 3.03540000 1.29267500
F 3.20643500 1.01302400 -0.44204300
F 1.33229400 2.02821600 -0.79506800
F 0.90411600 2.12017700 1.92765000
F 2.77554300 1.09547800 2.23740300
O -0.23040100 -1.33312600 0.24321600
H -1.18876100 -1.41825300 0.27940500
11
energy = -764.5502311070001
C 0.08687200 -0.07268500 -0.05927800
O 1.40958500 -0.00492700 -0.29411100
C 3.46753600 1.13285800 -0.45635500
C 1.95878900 1.24833800 -0.14879200
F 4.03399100 2.32388600 -0.32862000
F 1.41441800 2.12121100 -0.99305900
F 1.80749900 1.70776800 1.09099100
F 4.04198500 0.28964700 0.38770000
F 3.64876700 0.70006500 -1.69461200
O -0.19978900 -1.32610300 -0.25466100
H -1.14393600 -1.43483300 -0.09906600
11
energy = -764.5486724220001
C 0.07996600 -0.22132700 0.12975200
O 1.30194500 0.02563600 -0.36918600
C 1.36678500 2.37974000 -0.96093900
C 1.87546300 1.23875500 -0.04797600
F 2.00401100 3.50261500 -0.66268300
F 1.66886600 1.57380800 1.21927300
F 3.18197900 1.10208100 -0.24879200
F 1.60088700 2.07438100 -2.22928800
F 0.06713100 2.56492300 -0.79564400
O -0.21274200 -1.39968000 -0.34137400
H -1.08653800 -1.63255500 -0.01061600
11
energy = -764.5486658660001
C 0.09619300 -0.01906500 -0.18993900
O 1.43411400 -0.00541900 -0.07747300
C 2.00757000 1.82813600 1.40890200
C 2.04415100 1.23077400 -0.01807100
F 2.66886200 2.97628900 1.42448000
F 3.31629200 1.03859100 -0.35096200
F 1.50557500 2.09926300 -0.86461900
F 0.75999800 2.04425100 1.79297200
F 2.58092400 0.98819300 2.25898000
O -0.19874500 -1.28756900 -0.20486700
H -1.15527700 -1.35918400 -0.28814000
11
energy = -764.5485174280001
C 0.05804400 -0.02599800 0.23287000
O 1.37600000 0.01813500 -0.10666300
C 3.43309200 1.10397200 -0.49304600
C 1.95335200 1.26891000 -0.08315100
F 4.02809000 2.28601600 -0.48569400
F 1.35904200 2.09382000 -0.93945700
F 1.90104800 1.80482600 1.13215200
F 4.05422100 0.30148100 0.35909300
F 3.51291800 0.58672100 -1.71046000
O -0.29256900 -1.26550900 0.15046600
H 0.43791000 -1.85360600 -0.12431000
11
energy = -764.5470019
C 0.90442400 -0.71191700 -0.77773300
O 1.05111300 0.18196900 0.23536100
C 1.21201100 2.37961500 -0.79480300
C 1.89389600 1.25642600 0.02260700
F 2.02968000 3.41792100 -0.88346200
F 2.18880800 1.74289200 1.22434500
F 3.01561800 0.89470000 -0.58312000
F 0.91223500 1.95933700 -2.01090700
F 0.09818000 2.75827900 -0.18105400
O 0.07445500 -1.60471200 -0.34846900
H -0.23723800 -1.43259200 0.56142500
11
energy = -764.5469862660001
C -0.00015700 0.00064700 -0.00426300
O 1.35882900 -0.00034400 0.00111300
C 2.05144000 1.85544700 1.41280800
C 1.99814400 1.22503300 0.00062700
F 2.75403900 2.97739000 1.36777200
F 3.24649100 0.99441600 -0.39460900
F 1.43129100 2.07986300 -0.83832700
F 0.83509800 2.12349700 1.85333500
F 2.63884800 1.01133200 2.25130300
O -0.35813900 -1.24109000 0.00673200
H 0.39920400 -1.85839000 0.01643500
