%mem=28GB
%nprocshared=8
#P M062X/Def2TZVPP ! ASE formatted method and basis
Symm(None)
scf(xqc)
pop(None)
freq
opt(CalcFC)

Gaussian input prepared by ASE

0 1
C                 0.7086664662        1.9727815070        1.0073158153
O                 0.9684535557        0.0000000000        0.0000000000
C                 1.3740370152        1.3272773460        2.2428560168
C                 2.4396751141        0.2259798500        2.0625540301
F                 2.8789469580       -0.1871210288        3.2426810139
F                 1.9237052025       -0.8149830447        1.4165042718
F                 3.4726148483        0.6920618180        1.3675751798
F                 1.9521348772        2.3248994225        2.9289865189
F                 0.3825256366        0.7986720401        2.9762059720
O                 1.2086901024        1.4228828282        0.0000000000
H                 0.0000000000        0.0000000000        0.0000000000


