%mem=28GB
%nprocshared=8
#P M062X/Def2TZVPP ! ASE formatted method and basis
Symm(None)
scf(xqc)
pop(None)
opt(NoFreeze,TS,CalcAll,NoEigentest,MaxCycle=999)

Gaussian input prepared by ASE

0 1
C                 1.3926715571        0.0000000000        0.0000000000
O                 0.9721007104       -0.4258595940       -1.3114076097
C                 1.9225634061        1.4195027500        0.0000000000
C                 3.3161247532        1.5399657306       -0.6391469940
F                 3.6934222147        2.8105231300       -0.6599016837
F                 4.1987825928        0.8422393424        0.0572727905
F                 3.2897110107        1.0813013845       -1.8851039505
F                 1.0830776096        2.2678127905       -0.6704375728
F                 1.9815013399        1.8711534486        1.2608545820
O                 0.0000000000        0.0000000000        0.0000000000
H                -0.3859987866        0.8909976902       -0.1962699718


