%mem=28GB
%nprocshared=8
#P M062X/Def2TZVPP ! ASE formatted method and basis
Symm(None)
scf(xqc)
pop(None)
opt(NoFreeze,TS,CalcAll,NoEigentest,MaxCycle=999)

Gaussian input prepared by ASE

0 1
C                 1.7591350000        1.0884300000       -0.1890370000
O                -0.5927710000        1.0832180000        0.1241310000
C                 3.2270990000        1.2336220000       -0.5931120000
C                 4.1933990000        0.6729350000        0.4804010000
F                 5.4422580000        0.8480150000        0.0862790000
F                 3.9985600000        1.3123730000        1.6230440000
F                 3.9647520000       -0.6180070000        0.6539500000
F                 3.3961710000        0.5579890000       -1.7245580000
F                 3.4973840000        2.5189720000       -0.7781170000
O                 1.2176830000        0.5036140000        0.6245950000
H                -1.4342360000        0.8474360000        0.5397780000


