%mem=28GB
%nprocshared=8
#P M062X/Def2TZVPP ! ASE formatted method and basis
Symm(None)
scf(xqc)
pop(None)
opt(CalcAll,Cartesian)

Gaussian input prepared by ASE

0 1
C                 0.0879000000       -0.5670610000       -0.8397900000
O                 0.7319930000        0.5766350000       -1.2392930000
C                 1.9423060000        2.6109750000       -1.3029340000
C                 1.2663590000        1.5357930000       -0.4253230000
F                 2.4535590000        3.5534350000       -0.5238030000
F                 0.3203470000        2.1221950000        0.3310970000
F                 2.1790550000        1.0206220000        0.4121350000
F                 2.9129660000        2.0660390000       -2.0152380000
F                 1.0520930000        3.1566270000       -2.1110810000
O                -0.0632350000       -0.6598300000        0.4430750000
H                 0.2598400000        0.0577190000        1.0155560000


