11
energy = -764.4154317230001
C 1.53320900 -0.03537300 -0.02207600
O 2.07174200 -1.03772100 0.33162500
C 0.02156700 -0.00300600 -0.00315900
C -1.24525300 1.52946400 0.43707800
F -1.82458000 2.63684900 -0.01405700
F -2.22004700 0.68783400 0.63234200
F -0.55396500 1.89612400 1.48032100
F -0.36462400 1.38378800 -0.95664500
F -0.47736000 -0.95928900 -0.73215000
O 2.18860900 1.09066600 -0.30129800
H 1.59428600 1.76275500 -0.65389300
11
energy = -764.415430263
C 1.51283500 -0.03543300 0.17729600
O 2.00703600 -1.08548300 0.44746500
C 0.00996500 0.01585000 0.01840900
C -1.30392300 1.48815200 0.51952400
F -1.82577000 2.65879600 0.16865800
F -2.29390900 0.64302400 0.47034600
F -0.74580500 1.68870700 1.68110500
F -0.26167400 1.53097300 -0.76521400
F -0.39427700 -0.81894300 -0.89498400
O 2.19417100 1.10907700 0.14170800
H 1.64501300 1.83256300 -0.18117500
11
energy = -764.4213240140001
C 1.49919700 -0.00030100 -0.00034600
O 2.13139200 -1.00869000 0.11767800
C 0.00040200 0.00058400 0.00028600
C -1.24887500 1.53972300 0.45061300
F -1.76839500 2.65987000 -0.03445900
F -2.24843200 0.72868200 0.63518000
F -0.57104300 1.89226500 1.50311200
F -0.40415000 1.27150800 -0.93129800
F -0.47723500 -1.00455700 -0.69638200
O 2.01548600 1.23350900 0.00159300
H 2.97181900 1.14780000 0.11350900
