%mem=28GB
%nprocshared=8
#P am1 
Symm(None)
scf(xqc)
pop(None)
force

Gaussian input prepared by ASE

0 1
C                 1.2580445163        0.0568902702       -0.8019502150
O                 2.2207707605       -0.9984634381       -0.1960506443
C                -0.0281946215       -0.2886350445        0.0673463439
C                -0.5216170956        0.3523592176        1.3877334820
F                -1.7199535620       -0.0453430993        1.7791165542
F                 0.1131631482        0.2213238231        2.5388411221
F                -0.7576389445        1.6430400607        1.3786936082
F                 0.2929106310        1.4573889760       -1.1991263190
F                -0.7066160724       -1.2957171048       -0.2208431685
O                 2.0212075459        0.7463606630        0.1142002484
H                 2.7574206942        1.1222006760        0.6641319880


