%mem=28GB
%nprocshared=8
#P M062X/Def2TZVPP ! ASE formatted method and basis
Symm(None)
scf(xqc)
pop(None)
freq
opt(CalcFC)

Gaussian input prepared by ASE

0 1
C                 0.7131326315        1.9720274491       -1.0099308510
O                 0.9684535557        0.0000000000        0.0000000000
C                 1.0316909233        3.4793317454       -0.8980936831
C                 1.8598154075        4.1799788795       -1.9954782881
F                 2.0148555849        5.4639031106       -1.7059737131
F                 3.0621929828        3.6216620166       -2.0943693138
F                 1.2451548564        4.0837445324       -3.1702650156
F                -0.1484456370        4.1141346248       -0.8308254541
F                 1.6922291005        3.6437599276        0.2581819023
O                 1.2086901024        1.4228828282        0.0000000000
H                 0.0000000000        0.0000000000        0.0000000000


