%mem=28GB
%nprocshared=8
#P M062X/Def2TZVPP ! ASE formatted method and basis
Symm(None)
scf(xqc)
pop(None)
opt(NoFreeze,TS,CalcAll,NoEigentest,MaxCycle=999)

Gaussian input prepared by ASE

0 1
C                 1.0344906186        0.1929605655        0.2105316160
O                 0.8723355444       -0.8395651142       -0.4404527381
C                 1.5550416204        1.4178071039       -0.2378904557
C                 1.0910453802        2.1154969369       -1.5163759874
F                 0.9756196813        3.4346803174       -1.3216209379
F                 1.9345869989        1.9899549371       -2.5261254072
F                -0.0790682883        1.7175050053       -1.9401503098
F                 1.5062633560       -0.3120040558       -2.1574775088
F                 2.3866584450        2.0699538036        0.4917481854
O                 1.0806940632        0.0380464079        1.5364679292
H                 0.9596285802       -0.8873499075        1.7850186144


