11
energy = -764.4806674240001
C 1.35514800 0.10312400 -0.01625800
O 1.99020600 -0.64005100 -0.77054600
C -0.18418800 -0.08690600 0.09778800
C 1.56903200 -0.36891200 1.61983200
F 0.89690100 0.35239300 2.51870700
F 1.26519200 -1.64783300 1.80048000
F 2.85609300 -0.19451500 1.82086800
F -0.97473700 0.70771400 0.68297200
F -0.68664900 -1.23307100 -0.05182100
O 1.56208600 1.48419900 0.02084400
H 2.34613300 1.61717400 -0.52450900
11
energy = -764.4806537500001
C 1.52882200 0.11049300 0.16303300
O 2.23244600 -0.61814900 -0.54310600
C -0.01745300 0.00102500 0.04093100
C 1.47698800 -0.47650100 1.77517500
F 0.71528500 0.22334100 2.61770600
F 1.08943900 -1.74476800 1.81828100
F 2.72737500 -0.38959800 2.17052000
F -0.84775500 0.79950500 0.56242900
F -0.54512600 -1.10291800 -0.26154200
O 1.79300200 1.47225800 0.32806400
H 2.65404900 1.59467200 -0.08842600
11
energy = -764.4806798830002
C 1.55499200 -0.00012600 0.00005400
O 2.14754400 -0.84913500 -0.67274200
C -0.00009700 0.00028200 0.00021600
C 1.58907500 -0.41570300 1.66486600
F 0.94770900 0.42317500 2.48021900
F 1.11711200 -1.63875000 1.87008600
F 2.86979000 -0.38800500 1.95888300
F -0.72838300 0.90931300 0.49224100
F -0.62658700 -1.08354300 -0.14623300
O 1.92650000 1.34654600 -0.00030700
H 2.75950200 1.35838800 -0.48592200
