%mem=28GB
%nprocshared=8
#P M062X/Def2TZVPP ! ASE formatted method and basis
Symm(None)
scf(xqc)
pop(None)
freq
opt(CalcFC)

Gaussian input prepared by ASE

0 1
C                 2.4335064133        1.6815631550        0.0026150358
O                 0.9684535557        0.0000000000        0.0000000000
C                 3.0246127863        1.0485976013       -1.2764084366
C                 3.7235259969        1.9352753080       -2.3282033345
F                 4.1560478313        1.1958828007       -3.3394082444
F                 2.8772724209        2.8444034613       -2.8020702714
F                 4.7645870618        2.5603054762       -1.7871657702
F                 3.9226870993        0.1380182312       -0.8707857665
F                 2.0101608944        0.4275324819       -1.8972836387
O                 1.2086901024        1.4228828282        0.0000000000
H                 0.0000000000        0.0000000000        0.0000000000


