%mem=28GB
%nprocshared=8
#P M062X/Def2TZVPP ! ASE formatted method and basis
Symm(None)
scf(xqc)
pop(None)
opt(NoFreeze,TS,CalcAll,NoEigentest,MaxCycle=999)

Gaussian input prepared by ASE

0 1
C                 1.3926715571        0.0000000000        0.0000000000
O                 0.9721007104       -0.4258595940       -1.3114076097
C                 1.9225634061        1.4195027500        0.0000000000
C                 1.0220802555        2.3963187602       -0.7745928063
F                 1.5102352774        3.6254936983       -0.6855204595
F                 0.9648118726        2.0494611842       -2.0502564161
F                -0.2058660690        2.3861793088       -0.2690985715
F                 2.0612518287        1.9026662309        1.2732523075
F                 3.1488545758        1.4353874985       -0.5414554019
O                 0.0000000000        0.0000000000        0.0000000000
H                -0.3859987866        0.8909976902       -0.1962699718


