%mem=28GB
%nprocshared=8
#P am1 
Symm(None)
scf(xqc)
pop(None)
force

Gaussian input prepared by ASE

0 1
C                 2.1721361228        1.1051604605       -0.1064118840
O                 1.1033462110        1.7492168433       -0.0354084989
C                 1.9817783604       -0.3269907455       -0.1097881491
C                -0.2396795732        0.4619291210        0.0320967465
F                -0.5807983105       -0.8001275983        0.0769916979
F                -0.6068261795        1.0419495343        1.1560252523
F                -0.7098105870        1.0049897909       -1.0523216335
F                 2.2860577224       -1.0374184009       -1.2069364883
F                 2.4066009166       -1.0515005130        0.9530155547
O                 3.3159803294        1.7312701379       -0.1693048389
H                 3.1996409877        2.6919613699       -0.1519827587


