%mem=28GB
%nprocshared=8
#P M062X/Def2TZVPP ! ASE formatted method and basis
Symm(None)
scf(xqc)
pop(None)
freq
opt(CalcFC)

Gaussian input prepared by ASE

0 1
C                 2.4335064133        1.6815631550        0.0026150358
O                 0.9684535557        0.0000000000        0.0000000000
C                 3.0246127863        1.0485976013       -1.2764084366
C                 2.1109490194        0.2814812730       -2.2550302219
F                 2.8156117361       -0.1764276430       -3.2797651472
F                 1.5394712897       -0.7501097983       -1.6414814838
F                 1.1587197242        1.0827350084       -2.7224104941
F                 3.5911638612        2.0481692131       -1.9692998305
F                 3.9752212695        0.1920888591       -0.8726054819
O                 1.2086901024        1.4228828282        0.0000000000
H                 0.0000000000        0.0000000000        0.0000000000


