%mem=28GB
%nprocshared=8
#P M062X/Def2TZVPP ! ASE formatted method and basis
Symm(None)
scf(xqc)
pop(None)
freq
opt(CalcFC)

Gaussian input prepared by ASE

0 1
C                 2.4335064133        1.6815631550        0.0026150358
O                 0.9684535557        0.0000000000        0.0000000000
C                 3.0246127863        1.0485976013       -1.2764084366
C                 4.1291365879       -0.0237462889       -1.1712642893
F                 4.4910761812       -0.4317294428       -2.3790975823
F                 5.1978562704        0.4724435002       -0.5557621194
F                 3.6893171402       -1.0741873323       -0.4854618646
F                 1.9973219740        0.4913009486       -1.9354350213
F                 3.5251634052        2.0585388442       -2.0042740175
O                 1.2086901024        1.4228828282        0.0000000000
H                 0.0000000000        0.0000000000        0.0000000000


