%mem=28GB
%nprocshared=8
#P M062X/Def2TZVPP ! ASE formatted method and basis
Symm(None)
scf(xqc)
pop(None)
opt(NoFreeze,TS,CalcAll,NoEigentest,MaxCycle=999)

Gaussian input prepared by ASE

0 1
C                 1.5340171205        0.0000000000        0.0000000000
O                 1.9996819976       -0.8294878223        0.7811946736
C                 0.0000000000        0.0000000000        0.0000000000
C                -0.9500640532        1.2209244105        0.0609219667
F                -2.2109172098        0.8315493435       -0.0138314184
F                -0.7421129592        1.8163549519        1.2216570995
F                -0.6789782444        2.0330099737       -0.9333361031
F                 1.4977399946       -0.3721220166       -1.4481379477
F                -0.5906977871       -1.0981224664        0.0415787367
O                 1.9518087098        1.3115447608        0.0000000000
H                 2.7226761952        1.3341718807        0.5781738553


