%mem=28GB
%nprocshared=8
#P M062X/Def2TZVPP ! ASE formatted method and basis
Symm(None)
scf(xqc)
pop(None)
freq
opt(CalcFC)

Gaussian input prepared by ASE

0 1
C                 0.7131326315        1.9720274491       -1.0099308510
O                 0.9684535557        0.0000000000        0.0000000000
C                -0.8059144715        1.6953357741       -0.9664475803
C                -1.4865212169        0.9243895741       -2.1168240203
F                -2.7843211340        0.7966333514       -1.8808038738
F                -1.3286676139        1.5743680781       -3.2656578518
F                -0.9579208023       -0.2895574437       -2.2355958070
F                -1.0349741627        1.0032674563        0.1599604776
F                -1.4082475874        2.8914855891       -0.8843441239
O                 1.2086901024        1.4228828282        0.0000000000
H                 0.0000000000        0.0000000000        0.0000000000


