%mem=28GB
%nprocshared=8
#P M062X/Def2TZVPP ! ASE formatted method and basis
Symm(None)
scf(xqc)
pop(None)
opt(NoFreeze,TS,CalcAll,NoEigentest,MaxCycle=999)

Gaussian input prepared by ASE

0 1
C                 1.4988235090        0.0000000000        0.0000000000
O                 2.1313515682       -1.0079367639        0.1201259504
C                 0.0000000000        0.0000000000        0.0000000000
C                -1.2481721136        1.5393721705        0.4505426906
F                -1.7657775145        2.6611601559       -0.0330521189
F                -2.2490158486        0.7294975766        0.6334392584
F                -0.5705553404        1.8898573352        1.5040838722
F                -0.4048296251        1.2708691375       -0.9317753724
F                -0.4770299819       -1.0054986396       -0.6964605454
O                 2.0145276766        1.2340203412        0.0000000000
H                 1.7942612096        1.6407513866       -0.8488158931


