%mem=28GB
%nprocshared=8
#P M062X/Def2TZVPP ! ASE formatted method and basis
Symm(None)
scf(xqc)
pop(None)
freq
opt(CalcFC)

Gaussian input prepared by ASE

0 1
C                 0.7086664662        1.9727815070        1.0073158153
O                 0.9684535557        0.0000000000        0.0000000000
C                 1.0292882308        3.4797374110        0.8966868550
C                -0.1149199453        4.5133890467        0.8392283074
F                 0.3773754177        5.7403718210        0.7471938903
F                -0.8880463498        4.2886121245       -0.2185806951
F                -0.8600371567        4.4391807280        1.9376298572
F                 1.7840485503        3.7878563672        1.9623423247
F                 1.7543584405        3.6332701404       -0.2218038387
O                 1.2086901024        1.4228828282        0.0000000000
H                 0.0000000000        0.0000000000        0.0000000000


