%mem=28GB
%nprocshared=8
#P M062X/Def2TZVPP ! ASE formatted method and basis
Symm(None)
scf(xqc)
pop(None)
freq
opt(CalcFC)

Gaussian input prepared by ASE

0 1
C                 0.0000000000        0.0000000000        0.0000000000
O                 1.3589502766        0.0000000000        0.0000000000
C                 1.2907593453        2.2517336247       -0.9174695435
C                 1.9977542410        1.2255875574        0.0000000000
F                 1.8855229225        3.4295714309       -0.8014116376
F                 1.9357433721        1.6781167238        1.2486409790
F                 3.2692913125        1.1223391927       -0.3585287832
F                 1.3395889537        1.8644678864       -2.1796003918
F                 0.0212175415        2.3708521180       -0.5504131408
O                -0.3568335678        0.6288886983        1.0711861420
H                -0.8942426219        0.0812112898        1.6761249739


