11
energy = -764.4620435920001
C 1.72071100 0.11841100 -0.07750700
O 1.22536500 -0.42757900 -1.09992300
C -0.02931400 -0.00061000 -0.03979800
C -0.26523400 -1.10226600 1.02586300
F -1.57105100 -1.25786600 1.19523700
F 0.25838500 -2.25519200 0.64451000
F 0.25980900 -0.75438800 2.19116700
F -0.33810200 1.21422600 0.46123400
F -0.98409900 -0.15084900 -0.99379700
O 2.94179100 0.57468800 -0.20437000
H 3.23122200 0.95767800 0.63173900
11
energy = -764.462063222
C 1.80829900 -0.14974900 -0.02282500
O 1.24449400 -0.54940000 -1.07708000
C 0.05854500 -0.02743100 0.01793700
C -0.33348300 -1.16022700 1.00172900
F -1.64797200 -1.13681600 1.17408100
F 0.01638500 -2.34477600 0.52921300
F 0.23725400 -0.98130500 2.18360800
F -0.08021500 1.17863600 0.60863600
F -0.90424300 0.02743900 -0.93827200
O 3.08122900 0.14024600 -0.12655400
H 3.41856500 0.42121200 0.73182400
11
energy = -764.4622630890001
C 1.77478600 0.00025700 -0.00001200
O 1.26588400 -0.40330200 -1.08782000
C 0.00002200 0.00029100 0.00016800
C -0.29994100 -1.12778300 1.02288100
F -1.61461900 -1.25219100 1.14874600
F 0.20133200 -2.28106100 0.61028500
F 0.20092500 -0.83382600 2.20915000
F -0.22512600 1.21120600 0.52272700
F -0.94423900 -0.07978700 -0.96845200
O 3.01862300 0.37302300 -0.00049600
H 3.38308300 0.27158800 -0.90362200
