%mem=28GB
%nprocshared=8
#P M062X/Def2TZVPP ! ASE formatted method and basis
Symm(None)
scf(xqc)
pop(None)
freq
opt(CalcFC)

Gaussian input prepared by ASE

0 1
C                 0.7131326315        1.9720274491       -1.0099308510
O                 0.9684535557        0.0000000000        0.0000000000
C                 1.3852866206        1.3268811818       -2.2419813728
C                 2.4463249203        0.2220456295       -2.0562782022
F                 2.8910212775       -0.1917388777       -3.2341318936
F                 3.4767654486        0.6841252760       -1.3549339886
F                 1.9230780760       -0.8176279330       -1.4140289349
F                 0.3978061612        0.8026693985       -2.9838077406
F                 1.9712098158        2.3244459228       -2.9215982772
O                 1.2086901024        1.4228828282        0.0000000000
H                 0.0000000000        0.0000000000        0.0000000000


