%mem=28GB
%nprocshared=8
#P M062X/Def2TZVPP ! ASE formatted method and basis
Symm(None)
scf(xqc)
pop(None)
freq
opt(CalcFC)

Gaussian input prepared by ASE

0 1
C                 0.7131326315        1.9720274491       -1.0099308510
O                 0.9684535557        0.0000000000        0.0000000000
C                 1.0316909233        3.4793317454       -0.8980936831
C                -0.1139297462        4.5113780070       -0.8399272466
F                 0.3766538557        5.7387927380       -0.7445721503
F                -0.8577264054        4.4386061010       -1.9393269771
F                -0.8879373764        4.2832704403        0.2165156645
F                 1.7566466817        3.6335136355        0.2203378546
F                 1.7859382410        3.7888163614       -1.9637628608
O                 1.2086901024        1.4228828282        0.0000000000
H                 0.0000000000        0.0000000000        0.0000000000


