%mem=28GB
%nprocshared=8
#P M062X/Def2TZVPP ! ASE formatted method and basis
Symm(None)
scf(xqc)
pop(None)
freq
opt(CalcFC)

Gaussian input prepared by ASE

0 1
C                 0.7086664662        1.9727815070        1.0073158153
O                 0.9684535557        0.0000000000        0.0000000000
C                 1.3740370152        1.3272773460        2.2428560168
C                 0.5138567621        0.5866499597        3.2880883096
F                 1.2788902669        0.1106092769        4.2599014561
F                -0.3794930208        1.4141114344        3.8214199711
F                -0.1288105558       -0.4295426755        2.7210576716
F                 2.2705151549        0.4451755860        1.7754745437
F                 2.0148104238        2.3135436677        2.8886181414
O                 1.2086901024        1.4228828282        0.0000000000
H                 0.0000000000        0.0000000000        0.0000000000


