%mem=28GB
%nprocshared=8
#P M062X/Def2TZVPP ! ASE formatted method and basis
Symm(None)
scf(xqc)
pop(None)
freq
opt(CalcFC)

Gaussian input prepared by ASE

0 1
C                 0.7131326315        1.9720274491       -1.0099308510
O                 0.9684535557        0.0000000000        0.0000000000
C                 1.3852866206        1.3268811818       -2.2419813728
C                 0.5303050036        0.5908333371       -3.2946871929
F                 1.3005050530        0.1163322762       -4.2631666268
F                -0.1178426524       -0.4258373531       -2.7347815655
F                -0.3581008187        1.4216151167       -3.8310911708
F                 2.0338949907        2.3119996824       -2.8815677495
F                 2.2755196185        0.4411633134       -1.7694249138
O                 1.2086901024        1.4228828282        0.0000000000
H                 0.0000000000        0.0000000000        0.0000000000


