%mem=28GB
%nprocshared=8
#P M062X/Def2TZVPP ! ASE formatted method and basis
Symm(None)
scf(xqc)
pop(None)
freq
opt(CalcFC)

Gaussian input prepared by ASE

0 1
C                 2.4335064133        1.6815631550        0.0026150358
O                 0.9684535557        0.0000000000        0.0000000000
C                 2.5631237990        3.2207678368        0.0014068281
C                 1.2986004731        4.1050359279        0.0009168224
F                 1.6335589193        5.3872662549        0.0010370063
F                 0.5644245490        3.8609294160       -1.0801043204
F                 0.5638415442        3.8609479659        1.0815383478
F                 3.2685939494        3.5445083950        1.0958134844
F                 3.2681360561        3.5422796482       -1.0939964823
O                 1.2086901024        1.4228828282        0.0000000000
H                 0.0000000000        0.0000000000        0.0000000000


