%mem=28GB
%nprocshared=8
#P M062X/Def2TZVPP ! ASE formatted method and basis
Symm(None)
scf(xqc)
pop(None)
freq
opt(CalcFC)

Gaussian input prepared by ASE

0 1
C                 0.7086664662        1.9727815070        1.0073158153
O                 0.9684535557        0.0000000000        0.0000000000
C                 1.0292882308        3.4797374110        0.8966868550
C                 1.8582694294        4.1783960425        1.9946922410
F                 2.0170363457        5.4618340055        1.7050513455
F                 1.2425048159        4.0840074751        3.1690574853
F                 3.0590642919        3.6168669728        2.0945386225
F                 1.6899882075        3.6447681122       -0.2593678236
F                -0.1502885853        4.1157248300        0.8300604499
O                 1.2086901024        1.4228828282        0.0000000000
H                 0.0000000000        0.0000000000        0.0000000000


