11
energy = -764.442546169
C 1.74928800 -0.06539700 -0.13829400
O 1.85683300 -1.31516600 -0.06093400
C 0.04769100 -0.01183300 -0.07237300
C 0.26349300 -1.52986200 0.01789600
F -1.64985300 -0.72773000 0.04392800
F -0.00904100 -2.26467600 -1.00554200
F 0.07863900 -2.12413000 1.14675000
F -0.17743900 0.70939800 1.01484500
F -0.26923900 0.56347300 -1.22189300
O 2.80763800 0.65809000 -0.22723200
H 2.57276300 1.59512000 -0.27932700
11
energy = -764.4425461870001
C 1.74930800 -0.06544300 0.13819900
O 1.85683800 -1.31519600 0.06056300
C 0.04771000 -0.01184700 0.07234500
C 0.26349400 -1.52985900 -0.01826400
F -1.64984400 -0.72769800 -0.04406100
F 0.07859900 -2.12387700 -1.14724300
F -0.00901700 -2.26489400 1.00502100
F -0.26917700 0.56321000 1.22200100
F -0.17744500 0.70962600 -1.01470900
O 2.80766800 0.65801500 0.22725600
H 2.57280400 1.59503600 0.27955800
11
energy = -764.4411147810001
C 1.73396000 0.00000000 0.00000000
O 1.86070500 -1.25620800 -0.00018200
C 0.00000000 0.00000000 0.00000000
C 0.26553200 -1.51197600 -0.00018500
F -1.65910400 -0.78490000 -0.00009900
F 0.06045000 -2.18600400 -1.08001000
F 0.06049200 -2.18622600 1.07949700
F -0.28323000 0.63370200 1.12022600
F -0.28324700 0.63394400 -1.12007900
O 2.75009000 0.78196700 0.00000000
H 3.59064500 0.29026300 -0.00015500
