%mem=28GB
%nprocshared=8
#P M062X/Def2TZVPP ! ASE formatted method and basis
Symm(None)
scf(xqc)
pop(None)
freq
opt(CalcFC)

Gaussian input prepared by ASE

0 1
C                 1.3830756258        0.0000000000        0.0000000000
O                 0.0000000000        0.0000000000        0.0000000000
C                 2.0270105595       -1.1450526459        0.1454020824
C                -0.5773278722       -0.0108373255       -1.2260736292
F                -0.3642543069       -1.1494762081       -1.8728438994
F                -1.8703002950        0.1637650902       -1.0747518889
F                -0.0959636525        0.9746069543       -1.9998844175
F                 3.3295419657       -1.2420429412        0.2128843506
F                 1.4382541181       -2.3069547589        0.2734542199
O                 2.0052476288        1.1923978660        0.0000000000
H                 1.8585950043        1.6453915685       -0.8384964001


