%mem=28GB
%nprocshared=8
#P M062X/Def2TZVPP ! ASE formatted method and basis
Symm(None)
scf(xqc)
pop(None)
freq
opt(CalcFC)

Gaussian input prepared by ASE

0 1
C                 0.7131326315        1.9720274491       -1.0099308510
O                 0.9684535557        0.0000000000        0.0000000000
C                -0.8059144715        1.6953357741       -0.9664475803
C                -1.8061503015        2.8688942342       -0.9095409556
F                -3.0500035936        2.4125373805       -0.8798897029
F                -1.5989981264        3.6001675741        0.1811176833
F                -1.6674802146        3.6462821988       -1.9789478273
F                -1.0954564356        0.9852710406       -2.0674450992
F                -1.0239830678        0.9398109726        0.1207271535
O                 1.2086901024        1.4228828282        0.0000000000
H                 0.0000000000        0.0000000000        0.0000000000


