%mem=28GB
%nprocshared=8
#P M062X/Def2TZVPP ! ASE formatted method and basis
Symm(None)
scf(xqc)
pop(None)
opt(NoFreeze,TS,CalcAll,NoEigentest,MaxCycle=999)

Gaussian input prepared by ASE

0 1
C                 1.8297494571        0.0000000000        0.0000000000
O                 1.2892025505       -0.2908575592        1.1099657670
C                 0.0000000000        0.0000000000        0.0000000000
C                -0.2314162245        0.9282774547       -1.2360692409
F                 0.3010604248        0.4136658820       -2.3254289951
F                -1.5385563324        1.0684748391       -1.4362520451
F                 0.2929968932        2.1228601468       -1.0028753500
F                -0.3626967164       -1.2224589791       -0.3003136734
F                -0.8105499933        0.5055830352        0.9370387858
O                 3.1091116468        0.2391307717        0.0000000000
H                 3.4479845258        0.1471205538        0.9147707192


