%mem=28GB
%nprocshared=8
#P am1 
Symm(None)
scf(xqc)
pop(None)
force

Gaussian input prepared by ASE

0 1
C                 1.5148976350        0.2219484214        0.1674101307
O                 1.6868644575       -0.6572581010       -0.6773427796
C                 1.0876726496        1.5230772740       -0.1437927980
C                 1.2367500513        2.0999289449       -1.5514884139
F                 1.6908975149        3.3581855676       -1.5063468171
F                 2.1019958624        1.4439253296       -2.3050971244
F                 0.1121979581        2.1561854935       -2.2143353345
F                 0.0752936832       -0.3270485874       -1.6376346726
F                 0.5902348955        2.3055056896        0.7448105233
O                 1.5441828673       -0.1172079622        1.4590585285
H                 1.6763084253       -1.0697560700        1.5484317577


