11
energy = -764.4371558820002
C 2.17762300 1.05480200 -0.03643500
O 1.21723900 1.64957300 0.49842200
C 1.93934300 -0.33597600 -0.34669900
C -0.21088900 0.51025500 0.14094500
F -0.48627600 -0.74746400 0.37218000
F -0.92874200 1.19344500 1.00834000
F -0.50887700 0.89148400 -1.06643600
F 2.81797000 -0.86732700 -1.21082200
F 1.93162500 -1.11477900 0.76160900
O 3.25444200 1.69063000 -0.41131100
H 3.12496800 2.64579700 -0.32381800
11
energy = -764.4371545110001
C 2.17742200 1.05496900 -0.03094700
O 1.21156000 1.65403400 0.48905800
C 1.94245700 -0.33827300 -0.33231900
C -0.21291400 0.51177800 0.12572100
F -0.49092100 -0.74414000 0.36352100
F -0.93962600 1.20154800 0.98040300
F -0.49813000 0.88382900 -1.08757500
F 2.83024700 -0.87672200 -1.18255500
F 1.92261800 -1.10802000 0.78211700
O 3.25807700 1.68780200 -0.39985400
H 3.12763700 2.64363500 -0.32159500
11
energy = -764.437154197
C 2.17687900 1.05619700 -0.03462100
O 1.21249000 1.65363100 0.48998100
C 1.94252800 -0.33721700 -0.33566100
C -0.21194900 0.50954000 0.13244900
F -0.48711700 -0.74690300 0.37079100
F -0.93580300 1.19780800 0.99076100
F -0.50313300 0.88184000 -1.07935500
F 2.82723600 -0.87398300 -1.19016200
F 1.92875600 -1.10757800 0.77844500
O 3.25498900 1.69074900 -0.40799600
H 3.12355100 2.64635700 -0.32865800
11
energy = -764.4371455870001
C 2.16431600 1.06183900 -0.18542000
O 1.13750400 1.65444000 -0.58115600
C 1.97821600 -0.33417600 0.13703400
C -0.22289000 0.50037000 -0.05085300
F -0.51904000 -0.75693000 -0.25786500
F -0.36015900 0.86664200 1.18964700
F -1.05386000 1.18707600 -0.80746100
F 1.82866900 -1.10006200 -0.97026800
F 2.96739800 -0.86817700 0.87006600
O 3.27720500 1.70222600 0.05045500
H 3.13106800 2.65719400 -0.00820300
