%mem=28GB
%nprocshared=8
#P M062X/Def2TZVPP ! ASE formatted method and basis
Symm(None)
scf(xqc)
pop(None)
freq
opt(CalcFC)

Gaussian input prepared by ASE

0 1
C                 2.4335064133        1.6815631550        0.0026150358
O                 0.9684535557        0.0000000000        0.0000000000
C                 2.5631237990        3.2207678368        0.0014068281
C                 3.2927637475        3.9361990363       -1.1547649944
F                 3.2886756733        5.2471330936       -0.9604791952
F                 4.5546411241        3.5247933409       -1.2297305082
F                 2.6892816807        3.6793002918       -2.3110542869
F                 1.3136777570        3.7083035778        0.0390299689
F                 3.2035812618        3.5494644928        1.1337024109
O                 1.2086901024        1.4228828282        0.0000000000
H                 0.0000000000        0.0000000000        0.0000000000


