%mem=28GB
%nprocshared=8
#P am1 
Symm(None)
scf(xqc)
pop(None)
force

Gaussian input prepared by ASE

0 1
C                 2.1628443698        1.0927360136       -0.0977845812
O                 1.1414292415        1.7111693009        0.2715878305
C                 1.9875901149       -0.3404284187       -0.0462155237
C                -0.2277395724        0.4753013083        0.0197955683
F                -0.5930606680       -0.7685969864       -0.1555847714
F                -0.7065218484        0.9031381947        1.1698988232
F                -0.5667586476        1.1818373822       -1.0185924098
F                 2.2556199316       -1.1081100107       -1.1138939105
F                 2.4601885740       -1.0028856457        1.0367459011
O                 3.2624586872        1.7345749918       -0.3863053499
H                 3.1523758172        2.6917038701       -0.2936765765


