11
energy = 0
C 2.16284437 1.09273601 -0.09778458
O 1.14142924 1.71116930 0.27158783
C 1.98759011 -0.34042842 -0.04621552
C -0.22773957 0.47530131 0.01979557
F -0.59306067 -0.76859699 -0.15558477
F -0.70652185 0.90313819 1.16989882
F -0.56675865 1.18183738 -1.01859241
F 2.25561993 -1.10811001 -1.11389391
F 2.46018857 -1.00288565 1.03674590
O 3.26245869 1.73457499 -0.38630535
H 3.15237582 2.69170387 -0.29367658
11
energy = 0
C 2.17213612 1.10516046 -0.10641188
O 1.10334621 1.74921684 -0.03540850
C 1.98177836 -0.32699075 -0.10978815
C -0.23967957 0.46192912 0.03209675
F -0.58079831 -0.80012760 0.07699170
F -0.60682618 1.04194953 1.15602525
F -0.70981059 1.00498979 -1.05232163
F 2.28605772 -1.03741840 -1.20693649
F 2.40660092 -1.05150051 0.95301555
O 3.31598033 1.73127014 -0.16930484
H 3.19964099 2.69196137 -0.15198276
11
energy = 0
C 2.15995324 1.09566026 -0.11389317
O 1.10044995 1.71577978 -0.34855578
C 1.98374138 -0.33717855 -0.17069883
C -0.22598776 0.46896711 0.04055354
F -0.55331036 -0.77023173 0.30210830
F -0.47072379 1.20689375 1.10357007
F -0.81548014 0.85902583 -1.05135041
F 2.33343222 -0.98597648 -1.29221808
F 2.37154260 -1.11627734 0.86735493
O 3.28400112 1.73784703 0.05481057
H 3.16080755 2.69593034 -0.00570613
