%mem=28GB
%nprocshared=8
#P M062X/Def2TZVPP ! ASE formatted method and basis
Symm(None)
scf(xqc)
pop(None)
freq
opt(CalcFC)

Gaussian input prepared by ASE

0 1
C                 0.7131326315        1.9720274491       -1.0099308510
O                 0.9684535557        0.0000000000        0.0000000000
C                -0.8059144715        1.6953357741       -0.9664475803
C                -1.4116442160        0.8762285125        0.1924761919
F                -2.7224958904        0.7586148109        0.0370841333
F                -0.8797469673       -0.3416540715        0.2249772121
F                -1.1769335518        1.4770817994        1.3548353143
F                -1.4111914456        2.8927563712       -0.9596866884
F                -1.1077791617        1.0502919706       -2.1036004901
O                 1.2086901024        1.4228828282        0.0000000000
H                 0.0000000000        0.0000000000        0.0000000000


