%mem=28GB
%nprocshared=8
#P M062X/Def2TZVPP ! ASE formatted method and basis
Symm(None)
scf(xqc)
pop(None)
opt(NoFreeze,TS,CalcAll,NoEigentest,MaxCycle=999)

Gaussian input prepared by ASE

0 1
C                 2.0171180935        0.0000000000        0.0000000000
O                 2.4567914626       -0.9246766057        0.5566934584
C                 0.0000000000        0.0000000000        0.0000000000
C                -0.8985796083        0.8905046197       -0.8784414089
F                -1.3517486677        0.3032654342       -1.9718698039
F                -1.9309900672        1.2586872640       -0.1259163930
F                -0.2242053347        1.9892282629       -1.2341446286
F                 1.3020811975       -0.2435219470       -1.3284526809
F                -0.5359198422       -1.1671072761        0.0618799802
O                 2.3995866471        1.2546255781        0.0000000000
H                 2.3537178755        1.6343476481        0.8866343706


