11
energy = -764.448696496
C 1.60882600 -0.84101900 0.15583000
O 2.55028600 -1.44724600 -0.01352000
C 0.16892400 0.23271000 -0.01177500
C -0.45348400 0.45399900 1.39693800
F -1.72941700 0.09822600 1.36985500
F 0.16664900 -0.26996600 2.31961700
F -0.38511900 1.72823900 1.73153500
F -0.17657600 1.25728200 -0.83271200
F -0.54729700 -0.77713100 -0.63679800
O 1.70807800 0.94596900 0.34293000
H 2.01862800 1.59034400 -0.30980500
