%mem=28GB
%nprocshared=8
#P M062X/Def2TZVPP ! ASE formatted method and basis
Symm(None)
scf(xqc)
pop(None)
opt(NoFreeze,TS,CalcAll,NoEigentest,MaxCycle=999)

Gaussian input prepared by ASE

0 1
C                 1.5549907714        0.0000000000        0.0000000000
O                 2.1477029712       -0.8488749987       -0.6727823797
C                 0.0000000000        0.0000000000        0.0000000000
C                 1.5889880666       -0.4155623037        1.6650809790
F                 0.9489077269        0.4242579351        2.4803766682
F                 1.1157987560       -1.6380343058        1.8710137709
F                 2.8698411683       -0.3891503302        1.9585484721
F                -0.7284848109        0.9082444057        0.4931898703
F                -0.6261827478       -1.0837756172       -0.1478340832
O                 1.9264797371        1.3466616612        0.0000000000
H                 1.1971756708        1.7895513154       -0.4492366456


