%mem=28GB
%nprocshared=8
#P M062X/Def2TZVPP ! ASE formatted method and basis
Symm(None)
scf(xqc)
pop(None)
opt(NoFreeze,TS,CalcAll,NoEigentest,MaxCycle=999)

Gaussian input prepared by ASE

0 1
C                 1.7339595506        0.0000000000        0.0000000000
O                 1.8607052320       -1.2562080591       -0.0001815817
C                 0.0000000000        0.0000000000        0.0000000000
C                 0.2655321632       -1.5119761487       -0.0001851974
F                -1.6591040858       -0.7848996495       -0.0000994946
F                 0.0604495019       -2.1860041793       -1.0800099052
F                 0.0604924721       -2.1862255444        1.0794973008
F                -0.2832303914        0.6337022983        1.1202255265
F                -0.2832473693        0.6339442295       -1.1200792407
O                 2.7500895053        0.7819672252        0.0000000000
H                 2.7652898513        1.3627735927        0.7814984444


