11
energy = -764.463101161
C 1.79686000 -0.14815400 0.04252200
O 1.23786600 -0.37313000 1.14988400
C -0.00676900 -0.01078400 0.02658100
C -0.17858800 0.88853100 -1.24176600
F 0.32265300 0.30037900 -2.31361000
F -1.46886900 1.11621100 -1.45856200
F 0.43340300 2.05106000 -1.05415400
F -0.47251000 -1.20905600 -0.23984500
F -0.78115000 0.59349100 0.94030300
O 3.10268500 -0.00282000 0.09628100
H 3.44477500 0.15250000 -0.79120100
11
energy = -764.4631086660002
C 1.80929600 0.12663600 0.08120400
O 1.25500300 -0.25842700 1.14600700
C 0.00637800 0.00233100 -0.00067600
C -0.25611900 0.95726900 -1.21160500
F 0.35917800 0.52686300 -2.29884800
F -1.55849600 1.01144900 -1.46573700
F 0.17239500 2.17923200 -0.92126900
F -0.26967200 -1.22792300 -0.36690600
F -0.87632500 0.42018100 0.91902100
O 3.07723600 0.45451800 0.19959200
H 3.42037000 0.72355400 -0.65985600
11
energy = -764.4636393310001
C 1.82997200 0.00054400 0.00016700
O 1.28939700 -0.28997800 1.11018300
C 0.00016100 0.00056000 0.00005800
C -0.23173600 0.92840800 -1.23622200
F 0.30214100 0.41484600 -2.32540600
F -1.53905800 1.06636200 -1.43708500
F 0.29064500 2.12380500 -1.00257800
F -0.36230200 -1.22206900 -0.29990600
F -0.81041700 0.50635200 0.93696500
O 3.10970100 0.23778200 -0.00006100
H 3.44838200 0.14518400 0.91472100
