%mem=28GB
%nprocshared=8
#P M062X/Def2TZVPP ! ASE formatted method and basis
Symm(None)
scf(xqc)
pop(None)
freq
opt(CalcFC)

Gaussian input prepared by ASE

0 1
C                 1.4249830854        0.0000000000        0.0000000000
O                 0.0000000000        0.0000000000        0.0000000000
C                 1.8629157277        1.4768510267        0.0000000000
C                 2.0210579757        2.0076757000       -1.4356180309
F                 2.3257992247        3.2976420769       -1.4181082749
F                 2.9790754069        1.3508971793       -2.0678343985
F                 0.8779909508        1.8473234955       -2.0968194454
F                 0.9906431549        2.3188879102        0.6418520942
F                 3.0381335659        1.5868088098        0.6341818160
O                 0.5755923057       -0.0974248050        1.3247314774
H                 0.3991772872        0.8030845269        1.6700460581


