11
energy = -764.571551578
C 1.43520300 0.00851200 -0.05914900
O 0.06087300 0.04122800 -0.01691000
C 0.63639600 -0.50413100 -1.17015200
C 0.35797300 0.22006700 -2.47823500
F -0.86292700 -0.07571600 -2.91040100
F 0.44912000 1.53088600 -2.32982000
F 1.23496400 -0.16908300 -3.40082900
F 2.01011700 -0.90326300 0.73763900
F 0.47787700 -1.81979600 -1.32806900
O 2.04898700 1.20346000 0.00646000
H 3.00282900 1.07365100 0.03543900
11
energy = -764.5732361050002
C 1.39647400 0.01731100 -0.02216300
O 0.00081000 -0.00499800 -0.03449400
C 0.65100000 -0.52131100 -1.15967800
C 0.39092700 0.20809800 -2.46687400
F -0.84008600 -0.02352300 -2.89620100
F 0.52892900 1.52854700 -2.29227700
F 1.24912500 -0.18020400 -3.39805700
F 1.95938800 -0.85777500 0.79575100
F 0.54298000 -1.83838000 -1.34003600
O 2.03834400 1.19165000 0.08360900
H 1.58862100 1.86089200 -0.44323000
11
energy = -764.5726062880001
C 1.39688000 0.00031500 -0.00000700
O -0.00044700 -0.00022300 -0.00008800
C 0.63976200 -0.49449400 -1.13645800
C 0.39084600 0.24852500 -2.44255300
F -0.80030000 -0.08907400 -2.92640100
F 0.41785100 1.55823000 -2.26391000
F 1.31699700 -0.08469900 -3.33534400
F 1.91794400 -0.90015000 0.84088700
F 0.54045200 -1.81056700 -1.33258500
O 2.06475200 1.16066600 0.00011800
H 2.09938400 1.51673800 0.89654600
