%mem=28GB
%nprocshared=8
#P M062X/Def2TZVPP ! ASE formatted method and basis
Symm(None)
scf(xqc)
pop(None)
freq
opt(CalcFC)

Gaussian input prepared by ASE

0 1
C                 1.3972312834        0.0000000000        0.0000000000
O                 0.0000000000        0.0000000000        0.0000000000
C                 0.6399143638       -0.4945470011       -1.1364408001
C                 0.3910425813        0.2485711570       -2.4424687451
F                -0.8001777672       -0.0891553873       -2.9261094458
F                 0.4177608585        1.5582728170       -2.2637279552
F                 1.3170760149       -0.0843945593       -3.3354416997
F                 1.9179149782       -0.9006244544        0.8409674594
F                 0.5398543340       -1.8105457451       -1.3326030827
O                 2.0653629027        1.1602040371        0.0000000000
H                 2.0981398825        1.5174855921        0.8960270929


