%mem=28GB
%nprocshared=8
#P M062X/Def2TZVPP ! ASE formatted method and basis
Symm(None)
scf(xqc)
pop(None)
freq
opt(CalcFC)

Gaussian input prepared by ASE

0 1
C                 1.4249830854        0.0000000000        0.0000000000
O                 0.0000000000        0.0000000000        0.0000000000
C                 1.8629157277        1.4768510267        0.0000000000
C                 0.8280633005        2.3614360326        0.7171978502
F                 1.2545750529        3.6152936365        0.7730181676
F                -0.3282442507        2.3316211726        0.0761698628
F                 0.6464674251        1.9159774813        1.9573962136
F                 3.0704889426        1.7021484119        0.6106289249
F                 1.9892963197        1.8978219440       -1.2657905395
O                 0.5755923057       -0.0974248050        1.3247314774
H                 0.3991772872        0.8030845269        1.6700460581


