11
energy = -764.3601401860001
C 1.33058300 0.02842100 -0.13900300
O -0.04277000 -0.10889700 0.22848600
C 1.74825100 1.51469800 0.00774900
C 0.77023900 2.55443100 0.59507500
F 1.33383500 3.74322800 0.70416600
F -0.32115400 2.66064400 -0.13853200
F 0.40272400 2.16704500 1.84275400
F 2.86147600 1.55924100 0.76883200
F 2.04529300 1.94525300 -1.22735300
O 0.86286100 -0.41246400 1.31369300
H 0.73197800 0.35521000 1.90753200
11
energy = -764.3641306970002
C 1.43554200 -0.01463700 0.04549300
O 0.01448900 0.01343900 -0.04976800
C 1.87452000 1.46527200 0.03298700
C 3.24130500 1.66791400 0.70274700
F 3.57784300 2.95047700 0.70595100
F 3.16146400 1.24871400 1.96886600
F 4.18084800 0.98113100 0.08039700
F 1.94622500 1.84665300 -1.24603200
F 1.00615200 2.31528700 0.66970800
O 0.49963600 -0.09877700 1.30979100
H 0.32091700 0.80372300 1.64836300
11
energy = -764.363656809
C 1.42443000 0.00013500 -0.00032500
O -0.00057900 0.00090400 -0.00010400
C 1.86316600 1.47673800 0.00006100
C 2.02102900 2.00764300 -1.43556500
F 2.32399000 3.29807800 -1.41843900
F 2.98018400 1.35193300 -2.06720700
F 0.87835700 1.84559700 -2.09705000
F 0.99157000 2.31905000 0.64248500
F 3.03867400 1.58580900 0.63386800
O 0.57517300 -0.09731600 1.32448100
H 0.39937500 0.80317300 1.67022500
