5
energy = -289.01295988300006
C 1.29373500 0.01930800 0.07323200
O 1.99991400 -0.92654000 0.09618500
F 0.00696200 -0.03868100 -0.20506600
O 1.60683400 1.28455200 0.30709900
H 2.54915400 1.32002400 0.51043100
5
energy = -289.01295988699997
C 1.29364300 0.01933800 -0.07331300
O 1.99991900 -0.92643300 -0.09644800
F 0.00694000 -0.03879600 0.20528000
O 1.60655200 1.28462100 -0.30722500
H 2.54882000 1.32020000 -0.51077400
5
energy = -289.0103281290001
C 1.34202900 0.00000000 0.00000000
O 1.97906800 -0.98425300 -0.00007600
F 0.00000000 0.00000000 0.00000000
O 1.79766000 1.24145300 0.00000000
H 1.06565600 1.86837300 0.00044600
