%mem=28GB
%chk=1141903082400600000001_well
%nprocshared=8
#P M062X/Def2TZVPP ! ASE formatted method and basis
Symm(None)
scf(xqc)
pop(None)
freq
opt(CalcFC)

Gaussian input prepared by ASE

0 1
C                 1.2611450000        0.2660780000        0.2751860000
O                 1.8089640000       -0.7850100000        0.1837130000
C                 0.0165320000        0.4817250000        1.1614660000
F                -0.8097270000        1.3915490000        0.6644560000
F                -0.6429070000       -0.6564660000        1.3125950000
F                 0.4181850000        0.8976700000        2.3640580000
O                 1.6443440000        1.4112010000       -0.2759500000
H                 2.4519710000        1.2458880000       -0.7812780000


