%mem=28GB
%chk=1201923602880000000001_well
%nprocshared=8
#P M062X/Def2TZVPP ! ASE formatted method and basis
Symm(None)
scf(xqc)
pop(None)
freq
opt(CalcFC)

Gaussian input prepared by ASE

0 1
C                -0.5894580000        0.6705570000       -0.5628940000
C                -0.8530700000        0.1055310000        0.8352730000
F                -1.8353050000       -0.7809840000        0.8190100000
F                 0.2500730000       -0.4883390000        1.2909710000
F                -1.1749410000        1.0909520000        1.6656700000
F                -1.7258000000        1.2043860000       -1.0313360000
F                -0.2265200000       -0.3489840000       -1.3643680000
H                 0.2013970000        1.4201160000       -0.5404900000


