%mem=28GB
%chk=1362244183860600000001_well
%nprocshared=8
#P M062X/Def2TZVPP ! ASE formatted method and basis
Symm(None)
scf(xqc)
pop(None)
freq
opt(CalcFC)

Gaussian input prepared by ASE

0 1
C                 0.0029720000        0.1473680000       -0.0252240000
C                -1.1527120000        0.8493300000        0.7162580000
F                -2.3139400000        0.3780980000        0.2828110000
F                -1.0605380000        0.6282870000        2.0192560000
F                -1.1111070000        2.1548910000        0.4951420000
F                -0.1584260000        0.3434510000       -1.3487720000
F                -0.1062060000       -1.1808100000        0.1754990000
O                 1.1707860000        0.6316530000        0.4190770000
H                 1.8958310000        0.1917980000       -0.0436090000


