%mem=28GB
%chk=1642764945472630600001_r12_insertion_R_10_1_3_IRC_F_prod
%nprocshared=8
#P M062X/Def2TZVPP ! ASE formatted method and basis
Symm(None)
scf(xqc)
pop(None)
opt(CalcAll,Cartesian)

Gaussian input prepared by ASE

0 1
C                 2.8948540000       -2.0729720000       -2.3389720000
O                 2.6274320000       -1.3108490000       -1.5598040000
C                -0.0768130000        0.1319340000       -0.0285120000
C                -1.1617650000        0.8922060000        0.7604000000
F                -2.3633310000        0.4790210000        0.3809030000
F                -1.0232840000        0.6705100000        2.0592260000
F                -1.0646690000        2.1935760000        0.5315980000
F                -0.2830980000        0.3359280000       -1.3441740000
F                -0.2456590000       -1.1881160000        0.1794190000
O                 1.1312280000        0.5574940000        0.3636710000
H                 1.8121700000        0.1122200000       -0.1571650000


