%mem=28GB
%chk=1642764945472630600001_r12_insertion_R_11_10_1_IRC_R
%nprocshared=8
#P M062X/Def2TZVPP ! ASE formatted method and basis
Symm(None)
scf(xqc)
pop(None)
geom(AllCheck,NoKeepConstants)
guess(Read)
irc(RCFC,reverse,MaxPoints=100,StepSize=2)

Gaussian input prepared by ASE

0 1
C                 1.4884390000        0.3214640000       -0.0286430000
O                 2.3190720000       -0.5085580000        0.4144260000
C                -0.0198310000        0.0898480000       -0.0069880000
C                -0.6052550000        0.2957030000        1.4094160000
F                -1.9212220000        0.1815910000        1.3651170000
F                -0.1174380000       -0.6070230000        2.2440120000
F                -0.2859490000        1.5077900000        1.8465460000
F                -0.6212900000        0.9459990000       -0.8344330000
F                -0.2851450000       -1.1616320000       -0.3954770000
O                 2.0306480000        1.3615380000       -0.4710180000
H                 2.9474670000        0.5446860000       -0.0308540000


