%mem=28GB
%chk=1642764945472630600001_intra_H_migration_2_11_IRC_R_prod
%nprocshared=8
#P M062X/Def2TZVPP ! ASE formatted method and basis
Symm(None)
scf(xqc)
pop(None)
freq
opt(CalcFC)

Gaussian input prepared by ASE

0 1
C                -0.5119300000        1.1812270000       -0.8504300000
O                -1.4144340000        1.0728990000       -1.6157390000
C                -0.3790120000        0.2730130000        0.4136790000
C                 0.5623100000       -0.9310240000        0.1766920000
F                 0.5531330000       -1.7329670000        1.2297760000
F                 0.1575230000       -1.6100180000       -0.8883200000
F                 1.8012420000       -0.5053340000       -0.0301400000
F                 0.0789550000        0.9522590000        1.4743010000
F                -1.5895740000       -0.2126840000        0.7031530000
O                 0.4569380000        2.0678290000       -1.0285770000
H                 0.2341490000        2.5271350000       -1.8518310000


