%mem=28GB
%chk=1642764945472630600001_R_Addition_MultipleBond_1_3_4_IRC_R_prod
%nprocshared=8
#P mp2/6-31G ! ASE formatted method and basis
Symm(None)
scf(xqc)
pop(None)
guess(Mix,Always)
opt(CalcAll,Cartesian,Cartesian)

Gaussian input prepared by ASE

0 1
C                 8.8624480000       -2.4833400000      -12.1038030000
O                10.0860330000       -2.3722000000      -11.8732240000
C                 8.6736570000       -2.8735000000      -13.4927430000
C               -14.1782320000        5.0346940000       21.6098380000
F               -15.3423590000        4.8938350000       20.9214240000
F               -13.5131490000        3.8714730000       21.8389880000
F               -13.3740150000        6.0450840000       21.1832210000
F                 7.9547370000       -1.8855460000      -14.1199110000
F                 8.1869540000       -4.1963840000      -13.4450760000
O                 7.7322060000       -2.4101350000      -11.4201330000
H                 7.8850500000       -2.1177220000      -10.5366920000


