%mem=28GB
%chk=1642764945472630600001_r12_insertion_R_3_1_2_IRC_F_prod
%nprocshared=8
#P M062X/Def2TZVPP ! ASE formatted method and basis
Symm(None)
scf(xqc)
pop(None)
freq
opt(CalcFC)

Gaussian input prepared by ASE

0 1
C                 1.6950060000        0.8417650000       -0.2965890000
O                 1.1725640000       -0.3498540000       -0.6989460000
C                -0.2047190000       -0.3655340000       -0.5870720000
C                -0.7383730000        0.0120710000        0.8293770000
F                -1.9716540000       -0.4642200000        0.9507220000
F                 0.0268960000       -0.5454420000        1.7589680000
F                -0.7789390000        1.3151110000        1.0146520000
F                -0.7127640000        0.4799940000       -1.4836520000
F                -0.6162100000       -1.5909540000       -0.8838990000
O                 2.8801060000        0.9298130000       -0.7875130000
H                 3.1258070000        0.1612520000       -1.3393100000


