%mem=28GB
%chk=1642764945472630600001_r12_insertion_R_10_1_2_IRC_R
%nprocshared=8
#P M062X/Def2TZVPP ! ASE formatted method and basis
Symm(None)
scf(xqc)
pop(None)
geom(AllCheck,NoKeepConstants)
guess(Read)
irc(RCFC,reverse,MaxPoints=100,StepSize=2)

Gaussian input prepared by ASE

0 1
C                 1.4377100000       -0.4849970000        0.1169410000
O                 2.5007540000        0.3515990000        0.6150080000
C                 0.0856520000        0.1936310000        0.2016560000
C                -0.4586000000        0.2701050000        1.6379620000
F                -1.6112110000        0.9246910000        1.6482230000
F                -0.6533210000       -0.9478920000        2.1169970000
F                 0.4030410000        0.9090410000        2.4207870000
F                 0.1331770000        1.4690350000       -0.2932570000
F                -0.7931210000       -0.4711120000       -0.5619480000
O                 2.1452510000       -0.0245020000       -0.9906980000
H                 1.7401710000        0.7818040000       -1.3995680000


