%mem=28GB
%chk=1642764945472630600001_ketoenol_2_1_3_8_IRC_R_prod
%nprocshared=8
#P M062X/Def2TZVPP ! ASE formatted method and basis
Symm(None)
scf(xqc)
pop(None)
freq
opt(CalcFC)

Gaussian input prepared by ASE

0 1
C                -0.0779900000       -0.8996470000        0.9826470000
O                -0.8504240000       -1.6812790000        0.1944060000
C                 0.2498390000        0.3296520000        0.5928950000
C                -0.1225230000        1.0067970000       -0.7007620000
F                -0.4743210000        2.2677570000       -0.4510590000
F                 0.9241750000        1.0410650000       -1.5289170000
F                -1.1244020000        0.4116320000       -1.3284160000
F                 0.0535090000       -2.3495040000       -0.6904020000
F                 1.0295100000        1.0819990000        1.3545570000
O                 0.3274380000       -1.4137120000        2.1494880000
H                 0.0051570000       -2.3189650000        2.2212880000


