%mem=28GB
%chk=1642764945472630600001_intra_H_migration_2_11
%nprocshared=8
#P M062X/Def2TZVPP ! ASE formatted method and basis
Symm(None)
scf(xqc)
pop(None)
opt(NoFreeze,TS,CalcAll,NoEigentest,MaxCycle=999)

Gaussian input prepared by ASE

0 1
C                 1.4170200000        0.2353860000       -1.1532250000
O                 0.5351920000        0.4557070000       -1.9179590000
C                 1.5242520000       -0.6364080000        0.1168990000
C                 2.5082990000       -1.7887600000       -0.1807460000
F                 2.4532660000       -2.7423470000        0.7349690000
F                 2.2686940000       -2.3887530000       -1.3416370000
F                 3.7725340000       -1.3941490000       -0.2209190000
F                 1.9305430000        0.0981250000        1.1633900000
F                 0.3309590000       -1.0927150000        0.4967830000
O                 2.3908130000        0.9736910000       -1.6756740000
H                 1.4262470000        1.1168380000       -2.3750450000



