%mem=28GB
%chk=1642764945472630600001_r12_insertion_R_2_1_3_IRC_R_prod
%nprocshared=8
#P M062X/Def2TZVPP ! ASE formatted method and basis
Symm(None)
scf(xqc)
pop(None)
freq
opt(CalcFC)

Gaussian input prepared by ASE

0 1
C                 1.2779200000        1.2271240000       -0.7330700000
O                 1.1902100000       -0.1271090000       -0.7619210000
C                -0.0649980000       -0.6226750000       -0.4547630000
C                -0.7382590000        0.0844140000        0.7575580000
F                -1.2321500000        1.2663400000        0.4547350000
F                -1.7317960000       -0.6878530000        1.1766260000
F                 0.1498190000        0.2127410000        1.7379220000
F                -0.8757790000       -0.5485960000       -1.5054900000
F                 0.1044090000       -1.9021500000       -0.1387820000
O                 2.5173350000        1.5334410000       -0.9007390000
H                 3.0962830000        0.7530250000       -1.0074360000


