%mem=28GB
%chk=1642764945472630600001_r12_insertion_R_1_3_4_IRC_R_prod
%nprocshared=8
#P M062X/Def2TZVPP ! ASE formatted method and basis
Symm(None)
scf(xqc)
pop(None)
freq
opt(CalcFC)

Gaussian input prepared by ASE

0 1
C                 1.0999030000        0.1429630000        0.0734190000
O                 1.8440910000       -0.7824960000        0.2065150000
C                -0.3595890000       -0.5791470000       -1.3953610000
C                -0.0958740000        0.3537280000        1.0349350000
F                -1.0629010000        1.1442520000        0.5610580000
F                -0.6725760000       -0.7987570000        1.3653070000
F                 0.4128750000        0.9143550000        2.1230440000
F                -1.1734710000        0.1049190000       -2.0968760000
F                -0.7271050000       -1.7974650000       -1.3957070000
O                 1.3598400000        1.2831570000       -0.5910690000
H                 2.2387440000        1.1912330000       -0.9801980000


