%mem=28GB
%chk=1642764945472630600001_r13_insertion_CO2_3_11_IRC_F
%nprocshared=8
#P M062X/Def2TZVPP ! ASE formatted method and basis
Symm(None)
scf(xqc)
pop(None)
geom(AllCheck,NoKeepConstants)
guess(Read)
irc(RCFC,forward,MaxPoints=100,StepSize=2)

Gaussian input prepared by ASE

0 1
C                 2.1167230000       -0.0723180000       -0.0218830000
O                 2.2970050000       -1.1823330000       -0.2138770000
C                -0.0496620000        0.3229620000        0.0736990000
C                -0.6209190000        0.1075620000        1.4718770000
F                -1.9294890000       -0.1053530000        1.4722080000
F                -0.0225390000       -0.9413590000        2.0394500000
F                -0.3688860000        1.1834510000        2.2222650000
F                -0.6982160000        1.3964430000       -0.4661190000
F                -0.3759750000       -0.7530540000       -0.6720440000
O                 2.4389300000        1.1129630000        0.1654400000
H                 1.2838970000        1.1740420000        0.2014870000


