%mem=28GB
%chk=1642764945472630600001_ketoenol_2_1_3_4
%nprocshared=8
#P M062X/Def2TZVPP ! ASE formatted method and basis
Symm(None)
scf(xqc)
pop(None)
opt(NoFreeze,TS,CalcAll,NoEigentest,MaxCycle=999)

Gaussian input prepared by ASE

0 1
C                -0.1571150000        0.7084030000        0.8684800000
O                -0.3626370000        0.1236020000       -0.1386450000
C                 1.1849360000        1.3785330000        0.7460860000
C                 1.1246580000        0.8506080000       -1.0762280000
F                 0.1774330000        1.3206530000       -1.7636440000
F                 1.3855550000       -0.3707580000       -1.2677620000
F                 2.1740460000        1.4979800000       -1.4927750000
F                 2.1907470000        0.8287180000        1.3447680000
F                 1.2793230000        2.6455300000        0.8958060000
O                -1.1098270000        0.8208090000        1.8197570000
H                -0.7512000000        1.3499210000        2.5394230000



