%mem=28GB
%chk=1642764945472630600001_r12_insertion_R_5_4_6_IRC_R
%nprocshared=8
#P M062X/Def2TZVPP ! ASE formatted method and basis
Symm(None)
scf(xqc)
pop(None)
geom(AllCheck,NoKeepConstants)
guess(Read)
irc(RCFC,reverse,MaxPoints=100,StepSize=2)

Gaussian input prepared by ASE

0 1
C                 1.7582260000       -0.2519430000       -0.2959550000
O                 1.8110680000       -0.9015940000       -1.2732930000
C                -0.1117340000        0.0668320000       -0.1249220000
C                -0.6507880000        0.6255990000        1.0878970000
F                -1.1412930000       -0.1117560000        1.9907980000
F                 0.9996670000        0.9387680000        2.2819000000
F                -0.9191190000        1.8579970000        1.1868370000
F                -0.3395980000        0.8950350000       -1.1583210000
F                -0.6470620000       -1.1374740000       -0.3579300000
O                 2.4377390000        0.2890800000        0.5628500000
H                 1.7323920000        0.7008650000        1.6122410000


