%mem=28GB
%chk=1642764945472630600001_r13_insertion_ROR_11_10_1_2_IRC_R_prod
%nprocshared=8
#P M062X/Def2TZVPP ! ASE formatted method and basis
Symm(None)
scf(xqc)
pop(None)
freq
opt(CalcFC)

Gaussian input prepared by ASE

0 1
C                -1.3162490000        0.1749100000       -0.2282600000
O                -3.6683460000        0.1680420000        0.0871240000
C                 0.1517140000        0.3191710000       -0.6310430000
C                 1.1179670000       -0.2414030000        0.4423140000
F                 2.3668760000       -0.0663820000        0.0483070000
F                 0.9230670000        0.3980350000        1.5849870000
F                 0.8892510000       -1.5323620000        0.6159180000
F                 0.3208640000       -0.3564580000       -1.7625840000
F                 0.4222010000        1.6045940000       -0.8161110000
O                -1.8593770000       -0.4093510000        0.5850270000
H                -4.5055400000       -0.0728850000        0.5085440000


