%mem=28GB
%chk=1642764945472630600001_intra_H_migration_1_11
%nprocshared=8
#P M062X/Def2TZVPP ! ASE formatted method and basis
Symm(None)
scf(xqc)
pop(None)
opt(NoFreeze,TS,CalcAll,NoEigentest,MaxCycle=999)

Gaussian input prepared by ASE

0 1
C                 1.5685890000        0.2576360000        0.0394170000
O                 2.2463260000       -0.5828190000        0.5346800000
C                 0.0439080000        0.0191370000       -0.0171760000
C                -0.5505730000        0.3011610000        1.3799350000
F                -1.8624780000        0.4720550000        1.3557410000
F                -0.3314860000       -0.6842030000        2.2437230000
F                -0.0574020000        1.3920880000        1.9476320000
F                -0.5458590000        0.7850150000       -0.9474240000
F                -0.2434690000       -1.2192820000       -0.4174400000
O                 1.8645030000        1.4307780000       -0.5105840000
H                 2.7974380000        0.7998400000       -0.0964000000



