%mem=28GB
%chk=1642764945472630600001_r12_insertion_R_4_3_8
%nprocshared=8
#P M062X/Def2TZVPP ! ASE formatted method and basis
Symm(None)
scf(xqc)
pop(None)
opt(NoFreeze,TS,CalcAll,NoEigentest,MaxCycle=999)

Gaussian input prepared by ASE

0 1
C                 1.6338670000       -0.1525060000       -0.1005840000
O                 2.3884960000       -0.7750520000       -0.7890220000
C                 0.2718540000       -0.5109620000        0.2584970000
C                -0.6377460000        0.5143420000        1.2126670000
F                -1.9072990000        0.3627590000        1.1544610000
F                -0.3557330000       -0.0562530000        2.5415390000
F                -0.1984890000        1.7155710000        1.3674570000
F                -0.9199830000        1.1487490000       -0.5563030000
F                -0.2982440000       -1.4940910000       -0.2269420000
O                 2.0278980000        0.9968930000        0.4671610000
H                 2.9248740000        1.2219540000        0.1831670000

1 2 F
1 3 F
1 10 F
3 4 F
3 8 F
3 9 F
4 5 F
4 6 F
4 7 F
10 11 F


