%mem=28GB
%chk=1642764945472630600001_r12_insertion_R_8_3_4_IRC_R_prod
%nprocshared=8
#P M062X/Def2TZVPP ! ASE formatted method and basis
Symm(None)
scf(xqc)
pop(None)
freq
opt(CalcFC)

Gaussian input prepared by ASE

0 1
C                 1.8151810000       -0.3433550000       -0.8678010000
O                 2.7814440000       -0.9708730000       -1.2012650000
C                 0.7885820000       -1.1615790000       -0.1288030000
C                -1.2220930000        0.5890330000        0.7560870000
F                -2.2015020000        1.4574900000        0.8358670000
F                -1.6250520000       -0.5822720000        1.1897600000
F                -0.1949440000        1.0029450000        1.4599170000
F                -0.8701310000        0.4873750000       -0.5214960000
F                 0.1122670000       -1.8653820000       -0.9767840000
O                 1.6990620000        0.9796260000       -0.9009670000
H                 2.5350720000        1.3380550000       -1.2340450000


