%mem=28GB
%chk=1642764945472630600001_intra_H_migration_2_11_IRC_F_prod
%nprocshared=8
#P M062X/Def2TZVPP ! ASE formatted method and basis
Symm(None)
scf(xqc)
pop(None)
freq
opt(CalcFC)

Gaussian input prepared by ASE

0 1
C                -0.3941000000        1.2417640000       -0.8110600000
O                -1.4070510000        1.1069240000       -1.6535920000
C                -0.3808970000        0.2729110000        0.4130670000
C                 0.5642720000       -0.9295510000        0.1772570000
F                 0.5522740000       -1.7330320000        1.2295280000
F                 0.1563260000       -1.6093140000       -0.8893410000
F                 1.8009380000       -0.5072230000       -0.0294920000
F                 0.0757680000        0.9466390000        1.4755810000
F                -1.5952580000       -0.2116100000        0.6986060000
O                 0.4677950000        2.0424680000       -0.9842550000
H                -1.2475810000        1.7617850000       -2.3494570000


