%mem=28GB
%chk=1642764945472630600001_r12_insertion_R_5_4_6_IRC_F_prod
%nprocshared=8
#P M062X/Def2TZVPP ! ASE formatted method and basis
Symm(None)
scf(xqc)
pop(None)
freq
opt(CalcFC)

Gaussian input prepared by ASE

0 1
C                 1.8996450000       -0.5850390000       -0.8528060000
O                 1.5428630000       -1.1913020000       -1.7581740000
C                -0.8630920000       -0.1453540000       -0.6148710000
C                -1.1364620000        0.3640090000        0.5655910000
F                -1.4288960000       -0.3773090000        1.5979350000
F                 0.8180210000        0.7434910000        2.0656970000
F                -1.1792300000        1.6498450000        0.7805210000
F                -0.5596540000        0.5982650000       -1.6606810000
F                -0.8862560000       -1.4371860000       -0.8590110000
O                 2.2786000000        0.0303450000        0.0539640000
H                 1.5419280000        0.5987060000        1.5110100000


