%mem=28GB
%chk=1642764945472630600001_R_Addition_MultipleBond_1_3_4_IRC_F_prod
%nprocshared=8
#P mp2/6-31G ! ASE formatted method and basis
Symm(None)
scf(xqc)
pop(None)
guess(Mix,Always)
freq
opt(CalcFC)

Gaussian input prepared by ASE

0 1
C                 1.2946120000       -0.0007520000       -0.8387310000
O                 2.1912350000       -0.8472610000       -0.6857850000
C                -0.1898820000       -0.2701610000       -0.5397250000
C                -0.5914390000        0.1480340000        0.9159670000
F                -1.5104050000        1.1881270000        0.9109930000
F                -1.1307500000       -0.9199000000        1.6218710000
F                 0.5511120000        0.5857140000        1.6081150000
F                -1.0156360000        0.4121600000       -1.4540920000
F                -0.4219050000       -1.6507500000       -0.6904230000
O                 1.4616580000        1.3013230000       -1.2498320000
H                 2.4129930000        1.5083050000       -1.4044480000


