%mem=28GB
%chk=1642764945472630600001_r12_insertion_R_3_1_10_IRC_R_prod
%nprocshared=8
#P M062X/Def2TZVPP ! ASE formatted method and basis
Symm(None)
scf(xqc)
pop(None)
freq
opt(CalcFC)

Gaussian input prepared by ASE

0 1
C                 1.3843420000       -0.2941510000       -0.5696320000
O                 1.9949430000       -1.2915060000       -0.7697760000
C                -0.1550620000       -0.1985040000       -0.6015410000
C                -0.6994140000        0.2550760000        0.7765030000
F                -1.9739460000       -0.0692580000        0.9121840000
F                 0.0010680000       -0.3583340000        1.7309160000
F                -0.5721320000        1.5625740000        0.9252310000
F                -0.5321710000        0.6865500000       -1.5376530000
F                -0.6784030000       -1.3861430000       -0.8946880000
O                 1.8887430000        0.9004650000       -0.2685720000
H                 2.8533080000        0.8291080000       -0.2356990000


