%mem=28GB
%chk=1642764945472630600001_r12_insertion_R_3_1_2_IRC_R_prod
%nprocshared=8
#P M062X/Def2TZVPP ! ASE formatted method and basis
Symm(None)
scf(xqc)
pop(None)
freq
opt(CalcFC)

Gaussian input prepared by ASE

0 1
C                 1.4246160000       -0.0014150000       -0.6211110000
O                 1.9418650000       -1.0613740000       -0.4887130000
C                -0.1559030000       -0.0822860000       -0.6074150000
C                -0.7301160000        0.1163040000        0.8227840000
F                -1.9476620000       -0.3957610000        0.9196350000
F                 0.0399390000       -0.5005160000        1.7137190000
F                -0.7682440000        1.4084520000        1.1067770000
F                -0.7837170000        0.7012260000       -1.4911510000
F                -0.4597190000       -1.3456310000       -0.9235450000
O                 2.1172120000        1.1388970000       -0.7369350000
H                 3.0505410000        0.8742730000       -0.7023720000


