%mem=28GB
%chk=1642764945472630600001_R_Addition_MultipleBond_1_3_8_IRC_F_prod
%nprocshared=8
#P mp2/6-31G ! ASE formatted method and basis
Symm(None)
scf(xqc)
pop(None)
guess(Mix,Always)
freq
opt(CalcFC)

Gaussian input prepared by ASE

0 1
C                 1.4216870000       -0.1501380000       -0.7120200000
O                 1.9991060000       -0.6436250000       -1.6955810000
C                -0.0870470000       -0.3117810000       -0.4785060000
C                -0.7224220000        0.3259300000        0.7686780000
F                -2.0907290000        0.0576690000        0.7866530000
F                -0.1625950000       -0.1995450000        1.9303800000
F                -0.5520470000        1.7078350000        0.7573890000
F                -0.7547870000        0.2267380000       -1.6058560000
F                -0.3649800000       -1.6996130000       -0.4220770000
O                 2.0157810000        0.5914000000        0.2856370000
H                 2.9836100000        0.6933070000        0.1320910000


