%mem=28GB
%chk=1642764945472630600001_r12_insertion_R_3_1_10_IRC_F_prod
%nprocshared=8
#P M062X/Def2TZVPP ! ASE formatted method and basis
Symm(None)
scf(xqc)
pop(None)
freq
opt(CalcFC)

Gaussian input prepared by ASE

0 1
C                 1.3840810000       -0.2931600000       -0.5701500000
O                 1.9942740000       -1.2925680000       -0.7624110000
C                -0.1554640000       -0.1980880000       -0.6016450000
C                -0.6989500000        0.2543790000        0.7770070000
F                -1.9736000000       -0.0692540000        0.9129210000
F                 0.0016890000       -0.3602300000        1.7305120000
F                -0.5706270000        1.5616900000        0.9268650000
F                -0.5341010000        0.6871040000       -1.5369430000
F                -0.6782030000       -1.3861000000       -0.8948380000
O                 1.8886150000        0.9033280000       -0.2783560000
H                 2.8528810000        0.8325120000       -0.2438570000


