%mem=28GB
%chk=1642764945472630600001_r13_insertion_ROR_4_3_1_10_IRC_F_prod
%nprocshared=8
#P M062X/Def2TZVPP ! ASE formatted method and basis
Symm(None)
scf(xqc)
pop(None)
opt(CalcAll,Cartesian,Cartesian)

Gaussian input prepared by ASE

0 1
C                 1.7012280000        0.3748650000       -0.2879310000
O                 1.2665300000        1.4301640000       -0.0458940000
C                 2.1866260000       -0.8122090000       -0.5510360000
C                -1.8388200000        0.5407840000        0.4266710000
F                -2.9932600000        0.0592250000        0.8449860000
F                -2.0694330000        1.3708630000       -0.5969790000
F                -1.1171630000       -0.4793230000       -0.0755460000
F                 1.6564610000       -1.6186590000       -1.4458530000
F                 3.2529370000       -1.2953820000        0.0552750000
O                -1.2182630000        1.1431110000        1.4446840000
H                -0.3671300000        1.4848200000        1.1333110000


