%mem=28GB
%chk=1642764945472630600001_r12_insertion_R_10_1_3_IRC_R_prod
%nprocshared=8
#P M062X/Def2TZVPP ! ASE formatted method and basis
Symm(None)
scf(xqc)
pop(None)
freq
opt(CalcFC)

Gaussian input prepared by ASE

0 1
C                 1.4079700000       -0.5423500000       -0.5172720000
O                 2.1110690000       -1.5013180000       -0.6049800000
C                -0.1320120000       -0.1377010000       -0.6549800000
C                -0.6847840000        0.2352040000        0.7778320000
F                -1.9647470000       -0.0900360000        0.7850010000
F                -0.0463490000       -0.4631340000        1.7154830000
F                -0.5858280000        1.5188210000        1.0979620000
F                -0.3094970000        0.9859710000       -1.4011070000
F                -0.8680990000       -1.0590880000       -1.2427270000
O                 1.7641320000        0.7123570000       -0.1977920000
H                 2.6128730000        0.9926680000       -0.5579740000


