%mem=28GB
%chk=1642764945472630600001_intra_H_migration_1_11_IRC_R_prod
%nprocshared=8
#P M062X/Def2TZVPP ! ASE formatted method and basis
Symm(None)
scf(xqc)
pop(None)
freq
opt(CalcFC)

Gaussian input prepared by ASE

0 1
C                 1.4187020000        0.0232410000       -0.5778500000
O                 2.1354370000       -0.8118230000       -0.1266690000
C                -0.1324380000       -0.1501240000       -0.5913990000
C                -0.7361490000        0.0623290000        0.8180750000
F                -2.0548960000       -0.0481160000        0.7711980000
F                -0.2586080000       -0.8330720000        1.6654350000
F                -0.4204230000        1.2792890000        1.2510340000
F                -0.7398080000        0.6990150000       -1.4278750000
F                -0.4122810000       -1.4037070000       -0.9704800000
O                 1.8880150000        1.1551690000       -1.0797480000
H                 2.8496680000        1.0990130000       -0.9766120000


