%mem=28GB
%chk=1642764945472630600001_r12_insertion_R_1_3_8_IRC_R_prod
%nprocshared=8
#P M062X/Def2TZVPP ! ASE formatted method and basis
Symm(None)
scf(xqc)
pop(None)
freq
opt(CalcFC)

Gaussian input prepared by ASE

0 1
C                 0.9803230000        0.2205510000       -0.9933620000
O                 1.3617960000       -1.0748500000       -0.7699850000
C                -0.0149020000       -0.5612280000       -0.3042390000
C                -0.6737130000        0.0534560000        1.0162460000
F                -1.9033550000       -0.4236600000        1.1871880000
F                 0.0265350000       -0.1557830000        2.1104960000
F                -0.8259740000        1.3714400000        0.8509270000
F                 0.7315530000        0.6514770000       -2.2214650000
F                -0.9107010000       -1.3228990000       -0.8956350000
O                 1.6836020000        1.1036260000       -0.2438830000
H                 2.5200940000        0.6898390000       -0.0034260000


