%mem=28GB
%chk=1642764945472630600001_r13_insertion_ROR_4_3_1_10
%nprocshared=8
#P M062X/Def2TZVPP ! ASE formatted method and basis
Symm(None)
scf(xqc)
pop(None)
opt(NoFreeze,TS,CalcAll,NoEigentest,MaxCycle=999)

Gaussian input prepared by ASE

0 1
C                 2.5257660000        1.1373200000       -0.1261210000
O                 3.2172740000        2.0343770000       -0.4217000000
C                 1.8581620000       -0.1399940000        0.0327790000
C                -0.0818900000        0.3455770000        0.0125320000
F                -0.4622720000       -0.7894070000       -0.3942530000
F                -0.5222360000        0.4996770000        1.1735980000
F                -0.3714310000        1.1737570000       -0.8696280000
F                 2.0328640000       -0.9842050000       -0.9237350000
F                 2.0555340000       -0.7475270000        1.1336570000
O                 0.8851260000        1.9750120000        0.6527040000
H                 0.8751150000        2.8998240000        0.3508760000

1 2 F
1 3 F
1 10 F
3 4 F
3 8 F
3 9 F
4 5 F
4 6 F
4 7 F
10 11 F


