%mem=28GB
%chk=1642764945472630600001_r12_insertion_R_8_3_9
%nprocshared=8
#P M062X/Def2TZVPP ! ASE formatted method and basis
Symm(None)
scf(xqc)
pop(None)
opt(NoFreeze,TS,CalcAll,NoEigentest,MaxCycle=999,Cartesian)

Gaussian input prepared by ASE

0 1
C                 1.6562950000        0.7256990000        0.2788580000
O                 2.3022050000        1.1064390000        1.2074220000
C                 0.1775130000        0.5144120000        0.3756990000
C                -0.6359670000        0.1820640000        1.6277930000
F                -1.6267620000        1.0600880000        1.7441150000
F                -1.1422620000       -1.0231430000        1.4798880000
F                 0.1093270000        0.2227300000        2.7124900000
F                -0.4705940000        0.4562350000       -0.6760000000
F                -0.5333250000       -1.3700480000       -1.2877830000
O                 2.0692820000        0.4721220000       -0.9497370000
H                 3.0237820000        0.6248080000       -1.0006450000

1 2 F
1 3 F
1 10 F
3 4 F
3 8 F
3 9 F
4 5 F
4 6 F
4 7 F
10 11 F


