%mem=28GB
%chk=1642764945472630600001_intra_H_migration_1_11_IRC_R
%nprocshared=8
#P M062X/Def2TZVPP ! ASE formatted method and basis
Symm(None)
scf(xqc)
pop(None)
geom(AllCheck,NoKeepConstants)
guess(Read)
irc(RCFC,reverse,MaxPoints=100,StepSize=2)

Gaussian input prepared by ASE

0 1
C                 1.4907780000        0.3167670000       -0.0244360000
O                 2.3186870000       -0.5091400000        0.4312730000
C                -0.0177240000        0.0862680000       -0.0076140000
C                -0.6092180000        0.3033240000        1.4045940000
F                -1.9251630000        0.1910740000        1.3551590000
F                -0.1267370000       -0.5940250000        2.2479870000
F                -0.2898460000        1.5180950000        1.8342660000
F                -0.6150070000        0.9363910000       -0.8442190000
F                -0.2820890000       -1.1680120000       -0.3877020000
O                 2.0358560000        1.3517480000       -0.4751230000
H                 2.9499590000        0.5389170000       -0.0220810000


