%mem=28GB
%chk=1642764945472630600001_r12_insertion_R_8_3_1_IRC_R_prod
%nprocshared=8
#P M062X/Def2TZVPP ! ASE formatted method and basis
Symm(None)
scf(xqc)
pop(None)
freq
opt(CalcFC)

Gaussian input prepared by ASE

0 1
C                 1.6889360000        0.0611630000       -1.3867530000
O                 2.0326510000       -0.8421490000       -2.0455090000
C                -0.1764030000       -0.9926270000        0.4138870000
C                -0.9704320000        0.1882770000        1.0438970000
F                -2.0557060000        0.5646420000        0.3874690000
F                -1.3192320000       -0.2291230000        2.2605320000
F                -0.1684880000        1.2478190000        1.1755230000
F                 0.4146540000        0.5455830000       -1.4451720000
F                -1.0362990000       -1.6666310000       -0.2538590000
O                 2.3927750000        0.7629040000       -0.5276850000
H                 1.8296080000        1.3904930000       -0.0571940000


