%mem=28GB
%chk=1642764945472630600001_r12_insertion_R_5_4_3_IRC_F_prod
%nprocshared=8
#P M062X/Def2TZVPP ! ASE formatted method and basis
Symm(None)
scf(xqc)
pop(None)
freq
opt(CalcFC)

Gaussian input prepared by ASE

0 1
C                 1.1326790000        0.4607330000       -0.5920600000
O                 1.3529380000        1.5432490000       -0.1445560000
C                -0.2507890000        0.0602090000       -0.9265450000
C                -0.4313260000       -0.2119330000        0.8635500000
F                -1.3275020000        0.6785420000        1.2068290000
F                -0.8001060000       -1.4671390000        0.9376590000
F                 0.5446010000       -0.0905530000        1.8134850000
F                -1.0491760000        0.9983890000       -1.4240130000
F                -0.4864930000       -1.0390700000       -1.6413730000
O                 1.8484780000       -0.6543170000       -0.4316660000
H                 2.6161340000       -0.4480780000        0.1198150000


