%mem=28GB
%chk=1642764945472630600001_r13_insertion_CO2_3_11_IRC_R_prod
%nprocshared=8
#P M062X/Def2TZVPP ! ASE formatted method and basis
Symm(None)
scf(xqc)
pop(None)
freq
opt(CalcFC)

Gaussian input prepared by ASE

0 1
C                 1.7316560000       -0.1804990000       -0.6566950000
O                 2.1345480000       -1.2679760000       -0.8503760000
C                -0.1958990000        0.1507310000       -0.5837910000
C                -0.7914000000       -0.0149300000        0.8337610000
F                -2.1055370000       -0.2203650000        0.8275250000
F                -0.2058770000       -1.0598420000        1.4025020000
F                -0.5491890000        1.0665400000        1.5782500000
F                -0.8397050000        1.2651740000       -1.0972330000
F                -0.5753900000       -0.8816360000       -1.3187590000
O                 2.2872390000        0.9974130000       -0.4747430000
H                 1.5608310000        1.6240470000       -0.3724240000


