%mem=28GB
%chk=1642764945472630600001_r12_insertion_R_1_3_4
%nprocshared=8
#P M062X/Def2TZVPP ! ASE formatted method and basis
Symm(None)
scf(xqc)
pop(None)
opt(NoFreeze,TS,CalcAll,NoEigentest,MaxCycle=999)

Gaussian input prepared by ASE

0 1
C                 1.3136110000        0.1666620000        0.3220510000
O                 2.1318540000       -0.6330760000        0.6205530000
C                -0.0261320000       -0.3409440000       -0.5360660000
C                -0.1355740000        0.4252030000        1.5233090000
F                -0.9946520000        1.2121590000        1.1044870000
F                -0.6747040000       -0.6438990000        1.8341820000
F                 0.4158120000        0.8975070000        2.4750260000
F                -0.7377720000        0.4061330000       -1.1598410000
F                -0.4781160000       -1.4527520000       -0.4290710000
O                 1.5785920000        1.4000770000       -0.1015550000
H                 2.5365790000        1.5343340000       -0.1409780000

1 2 F
1 3 F
1 10 F
3 4 F
3 8 F
3 9 F
4 5 F
4 6 F
4 7 F
10 11 F


