%mem=28GB
%chk=1642764945472630600001_r12_insertion_R_8_3_4_IRC_F
%nprocshared=8
#P M062X/Def2TZVPP ! ASE formatted method and basis
Symm(None)
scf(xqc)
pop(None)
geom(AllCheck,NoKeepConstants)
guess(Read)
irc(RCFC,forward,MaxPoints=100,StepSize=2)

Gaussian input prepared by ASE

0 1
C                 1.7889300000       -0.0467150000       -0.1793700000
O                 2.6845540000       -0.8033490000       -0.4156350000
C                 0.4832730000       -0.5162290000        0.3874530000
C                -0.8815090000        0.5628040000        1.4379990000
F                -1.8532800000        1.4567470000        1.3087140000
F                -1.4425660000       -0.5162620000        1.8982900000
F                 0.0188460000        1.1275360000        2.1879270000
F                -0.6101610000        0.5462180000       -0.1807100000
F                 0.0911150000       -1.6333800000       -0.1798460000
O                 1.8739810000        1.2865160000       -0.2427610000
H                 2.7763130000        1.5075130000       -0.5099560000


