%mem=28GB
%chk=1642764945472630600001_r12_insertion_R_1_3_4_IRC_R
%nprocshared=8
#P M062X/Def2TZVPP ! ASE formatted method and basis
Symm(None)
scf(xqc)
pop(None)
geom(AllCheck,NoKeepConstants)
guess(Read)
irc(RCFC,reverse,MaxPoints=100,StepSize=2)

Gaussian input prepared by ASE

0 1
C                 1.1359290000        0.1398910000        0.3041600000
O                 1.9754780000       -0.6698110000        0.7092190000
C                 0.0330010000       -0.3547670000       -0.6740320000
C                -0.0351190000        0.4561890000        1.5186330000
F                -1.0088960000        1.2997800000        1.1724820000
F                -0.5919950000       -0.6641230000        1.9608370000
F                 0.6689720000        1.0032220000        2.4842500000
F                -0.7730290000        0.3913120000       -1.3005430000
F                -0.3753030000       -1.5452840000       -0.6070510000
O                 1.4838670000        1.4167020000       -0.1432710000
H                 2.4165930000        1.4982940000        0.0874110000


