%mem=28GB
%chk=1642764945472630600001_r13_insertion_ROR_11_10_1_2
%nprocshared=8
#P M062X/Def2TZVPP ! ASE formatted method and basis
Symm(None)
scf(xqc)
pop(None)
opt(NoFreeze,TS,CalcAll,NoEigentest,MaxCycle=999)

Gaussian input prepared by ASE

0 1
C                 1.6356470000        0.9723470000       -0.2218080000
O                 0.0985300000        1.3696630000        0.9945020000
C                 3.1203950000        1.2312890000       -0.5582730000
C                 3.9425780000        0.7936540000        0.6735370000
F                 5.2398330000        0.7530410000        0.4159100000
F                 3.8011850000        1.6166540000        1.7068510000
F                 3.6202490000       -0.4147830000        1.1110410000
F                 3.4988030000        0.5798260000       -1.6683010000
F                 3.3152450000        2.5148820000       -0.8597690000
O                 0.6274990000        0.1188850000       -0.8199210000
H                -0.2305290000        0.5131390000        0.0735850000

1 2 F
1 3 F
1 10 F
3 4 F
3 8 F
3 9 F
4 5 F
4 6 F
4 7 F
10 11 F


