%mem=28GB
%chk=1642764945472630600001_ketoenol_2_1_3_8_IRC_F_prod
%nprocshared=8
#P M062X/Def2TZVPP ! ASE formatted method and basis
Symm(None)
scf(xqc)
pop(None)
freq
opt(CalcFC)

Gaussian input prepared by ASE

0 1
C                -0.4374100000       -1.0705810000        1.0979160000
O                -1.4045760000       -1.5784880000        0.6434130000
C                 0.3600580000       -0.0754200000        0.3049630000
C                -0.1466460000        0.8853780000       -0.7927340000
F                -0.4655540000        2.1056600000       -0.3471090000
F                 0.8816780000        1.0283540000       -1.6153840000
F                -1.1913690000        0.3849610000       -1.3969720000
F                 0.7366900000       -1.4160790000       -0.6171660000
F                 1.1977140000        0.6507380000        1.0383290000
O                 0.2078120000       -1.3635300000        2.2253070000
H                -0.2267360000       -2.1274360000        2.6306180000


