%mem=28GB
%chk=1642764945472630600001_r12_insertion_R_3_4_5_IRC_F_prod
%nprocshared=8
#P M062X/Def2TZVPP ! ASE formatted method and basis
Symm(None)
scf(xqc)
pop(None)
freq
opt(CalcFC)

Gaussian input prepared by ASE

0 1
C                 1.4863040000        0.1473090000       -0.9266340000
O                 1.4212100000        0.0440120000        0.4306140000
C                -0.9177540000       -0.0213310000       -0.3735590000
C                 0.0914070000       -0.0557240000        0.8228790000
F                -2.1202160000       -0.1257470000        0.1766060000
F                -0.0921640000       -1.1923830000        1.4919160000
F                -0.2059780000        0.9451160000        1.6494290000
F                -0.8795290000        1.1242480000       -1.0365140000
F                -0.7641870000       -1.0473500000       -1.1963490000
O                 2.6966100000        0.2409090000       -1.3230370000
H                 3.3632430000        0.2236010000       -0.6076050000


