%mem=28GB
%chk=1642764945472630600001_r12_insertion_R_10_1_2
%nprocshared=8
#P M062X/Def2TZVPP ! ASE formatted method and basis
Symm(None)
scf(xqc)
pop(None)
opt(NoFreeze,TS,CalcAll,NoEigentest,MaxCycle=999)

Gaussian input prepared by ASE

0 1
C                 1.3640290000       -0.3688750000        0.1358840000
O                 3.0866660000       -0.7664430000        0.4742060000
C                -0.1317750000        0.0079170000        0.0628540000
C                -0.5324190000        0.3736820000        1.5087320000
F                -1.7900930000        0.7768750000        1.5898330000
F                -0.4347050000       -0.6340480000        2.3689640000
F                 0.2110980000        1.3562280000        1.9959730000
F                -0.3322470000        1.0015640000       -0.8159130000
F                -0.9012010000       -0.9713930000       -0.4119210000
O                 2.4447130000        0.7416820000       -0.4867600000
H                 1.9454370000        1.4542140000       -0.9097500000

1 2 F
1 3 F
1 10 F
3 4 F
3 8 F
3 9 F
4 5 F
4 6 F
4 7 F
10 11 F


