%mem=28GB
%chk=1642764945472630600001_R_Addition_MultipleBond_1_10_11_IRC_F_prod
%nprocshared=8
#P mp2/6-31G ! ASE formatted method and basis
Symm(None)
scf(xqc)
pop(None)
guess(Mix,Always)
freq
opt(CalcFC)

Gaussian input prepared by ASE

0 1
C                 1.4239850000        0.0247470000       -0.5627750000
O                 2.2329230000       -1.0329230000       -0.8837380000
C                -0.1039450000       -0.2097680000       -0.5528620000
C                -0.7679120000        0.1850600000        0.7861310000
F                -2.1175590000       -0.1489550000        0.7952730000
F                -0.1262590000       -0.5063580000        1.8195390000
F                -0.6438670000        1.5491100000        1.0188630000
F                -0.6823030000        0.6042810000       -1.5618480000
F                -0.4476520000       -1.5482740000       -0.8134720000
O                 1.9255670000        1.1367150000       -0.3096180000
H                 3.1637630000       -0.7014910000       -0.8583260000


