%mem=28GB
%chk=1642764945472630600001_r12_insertion_R_8_3_1
%nprocshared=8
#P M062X/Def2TZVPP ! ASE formatted method and basis
Symm(None)
scf(xqc)
pop(None)
opt(NoFreeze,TS,CalcAll,NoEigentest,MaxCycle=999)

Gaussian input prepared by ASE

0 1
C                 1.9327060000       -0.0708200000       -0.4052970000
O                 2.2430580000       -0.9849160000       -1.0934360000
C                -0.0973410000       -0.3963630000        0.3776040000
C                -0.6051630000        0.3855110000        1.3828600000
F                -1.8742010000        0.8755300000        1.2814320000
F                -0.6254430000       -0.2181200000        2.6085770000
F                 0.1124600000        1.5187720000        1.6283250000
F                 0.2337900000        0.6136420000       -0.9104770000
F                -0.5429240000       -1.2993730000       -0.1220390000
O                 2.4312930000        0.9961320000        0.2027760000
H                 1.7212610000        1.5514060000        0.5617720000

1 2 F
1 3 F
1 10 F
3 4 F
3 8 F
3 9 F
4 5 F
4 6 F
4 7 F
10 11 F


