%mem=28GB
%chk=1642764945472630600001_r12_insertion_R_5_4_3_IRC_R
%nprocshared=8
#P M062X/Def2TZVPP ! ASE formatted method and basis
Symm(None)
scf(xqc)
pop(None)
geom(AllCheck,NoKeepConstants)
guess(Read)
irc(RCFC,reverse,MaxPoints=100,StepSize=2)

Gaussian input prepared by ASE

0 1
C                 1.0354840000        0.6357830000        0.2772550000
O                 1.4139120000        1.7952900000        0.4692700000
C                -0.0646200000        0.3767690000       -0.7908490000
C                -0.0168510000        0.1264170000        1.5339250000
F                -1.0341490000        0.9647160000        1.6865140000
F                -0.5065760000       -1.1080660000        1.4080460000
F                 0.7454310000        0.1674960000        2.6037880000
F                -0.9372590000        1.2574500000       -1.0174740000
F                -0.4152060000       -0.7620300000       -1.2140750000
O                 1.9285290000       -0.4317590000        0.1571790000
H                 2.7808030000       -0.0506620000        0.3985200000


