%mem=28GB
%chk=1642764945472630600001_R_Addition_MultipleBond_1_3_8_IRC_R_prod
%nprocshared=8
#P mp2/6-31G ! ASE formatted method and basis
Symm(None)
scf(xqc)
pop(None)
guess(Mix,Always)
freq
opt(CalcFC)

Gaussian input prepared by ASE

0 1
C                 1.4201480000       -0.1489840000       -0.7122670000
O                 1.9983260000       -0.6374390000       -1.7030730000
C                -0.0870580000       -0.3123650000       -0.4778270000
C                -0.7225540000        0.3264710000        0.7683850000
F                -2.0911500000        0.0594270000        0.7855750000
F                -0.1641150000       -0.1984250000        1.9310200000
F                -0.5508600000        1.7083690000        0.7558080000
F                -0.7560290000        0.2234290000       -1.6060360000
F                -0.3630070000       -1.7009210000       -0.4193180000
O                 2.0177560000        0.5862030000        0.2921200000
H                 2.9851110000        0.6871200000        0.1358980000


