%mem=28GB
%chk=1642764945472630600001_r12_insertion_R_3_4_5_IRC_R_prod
%nprocshared=8
#P M062X/Def2TZVPP ! ASE formatted method and basis
Symm(None)
scf(xqc)
pop(None)
freq
opt(CalcFC)

Gaussian input prepared by ASE

0 1
C                 1.4056430000        0.1136060000       -0.5267510000
O                 1.8317730000        0.0544450000        0.5847890000
C                -0.1293260000        0.0398510000       -0.6347610000
C                -0.6681030000       -0.0951340000        0.8094150000
F                -1.9802290000       -0.1505720000        0.6126880000
F                -0.2616610000       -1.1938360000        1.4273580000
F                -0.3752220000        0.9383140000        1.5842970000
F                -0.7006110000        1.1372280000       -1.1541150000
F                -0.5855020000       -1.0240400000       -1.3132150000
O                 2.1543180000        0.2333150000       -1.6122360000
H                 3.0751260000        0.2601440000       -1.3122180000


