%mem=28GB
%chk=1642764945472630600001_r13_insertion_ROR_8_3_1_2_IRC_R_prod
%nprocshared=8
#P M062X/Def2TZVPP ! ASE formatted method and basis
Symm(None)
scf(xqc)
pop(None)
freq
opt(CalcFC)

Gaussian input prepared by ASE

0 1
C                 0.7940950000        1.2455740000       -0.5959300000
O                 1.1677920000        1.8362980000        0.3592750000
C                -0.1143240000        0.0615450000       -0.4584440000
C                -0.1894580000       -0.9438120000        0.7111890000
F                 0.5569200000       -2.0409440000        0.5481570000
F                 0.1637160000       -0.3714890000        1.8317080000
F                -1.4554050000       -1.3346830000        0.7326200000
F                -1.2132270000        1.2036100000        0.0441900000
F                -0.1821750000       -0.6907870000       -1.5578240000
O                 0.9113120000        1.5781820000       -1.8796350000
H                 1.3207930000        2.4533030000       -1.9243410000


