%mem=28GB
%chk=1642764945472630600001_r12_insertion_R_10_1_2_IRC_F
%nprocshared=8
#P M062X/Def2TZVPP ! ASE formatted method and basis
Symm(None)
scf(xqc)
pop(None)
geom(AllCheck,NoKeepConstants)
guess(Read)
irc(RCFC,forward,MaxPoints=100,StepSize=2)

Gaussian input prepared by ASE

0 1
C                 1.1727220000       -0.7631900000       -0.5823900000
O                 2.2475320000        0.1002560000       -0.1284980000
C                -0.1610930000       -0.0587320000       -0.5142150000
C                -0.7084850000        0.0158090000        0.9213610000
F                -1.8609360000        0.6714370000        0.9328550000
F                -0.9031690000       -1.2009700000        1.4016530000
F                 0.1537420000        0.6558120000        1.7054050000
F                -0.1168390000        1.2178430000       -1.0094700000
F                -1.0427570000       -0.7243580000       -1.2775650000
O                 1.9073300000       -0.2668730000       -1.6921830000
H                 1.5170840000        0.5604240000       -2.0599870000


