%mem=28GB
%chk=1642764945472630600001_r12_insertion_R_3_1_10
%nprocshared=8
#P M062X/Def2TZVPP ! ASE formatted method and basis
Symm(None)
scf(xqc)
pop(None)
opt(NoFreeze,TS,CalcAll,NoEigentest,MaxCycle=999)

Gaussian input prepared by ASE

0 1
C                 1.4863870000       -0.6852430000       -0.0701690000
O                 2.5172910000       -1.2572990000       -0.1153740000
C                -0.0120520000        0.0508010000       -0.1104600000
C                -0.4116290000        0.4723460000        1.2970530000
F                -1.6146230000        0.0166840000        1.6301040000
F                 0.4005730000        0.0242470000        2.2536800000
F                -0.4802470000        1.7912070000        1.4570380000
F                -0.0824680000        0.9558250000       -1.0629910000
F                -0.8308620000       -0.8739840000       -0.5633090000
O                 1.5364420000        1.0788380000        0.2839040000
H                 2.4206870000        1.3979800000        0.5126240000

1 2 F
1 3 F
1 10 F
3 4 F
3 8 F
3 9 F
4 5 F
4 6 F
4 7 F
10 11 F


