%mem=28GB
%chk=1642764945472630600001_r13_insertion_ROR_4_3_1_2_IRC_R
%nprocshared=8
#P M062X/Def2TZVPP ! ASE formatted method and basis
Symm(None)
scf(xqc)
pop(None)
geom(AllCheck,NoKeepConstants)
guess(Read)
irc(RCFC,reverse,MaxPoints=100,StepSize=2)

Gaussian input prepared by ASE

0 1
C                 2.1776230000        1.0548020000       -0.0364350000
O                 1.2172390000        1.6495730000        0.4984220000
C                 1.9393430000       -0.3359760000       -0.3466990000
C                -0.2108890000        0.5102550000        0.1409450000
F                -0.4862760000       -0.7474640000        0.3721800000
F                -0.9287420000        1.1934450000        1.0083400000
F                -0.5088770000        0.8914840000       -1.0664360000
F                 2.8179700000       -0.8673270000       -1.2108220000
F                 1.9316250000       -1.1147790000        0.7616090000
O                 3.2544420000        1.6906300000       -0.4113110000
H                 3.1249680000        2.6457970000       -0.3238180000


