%mem=28GB
%chk=1642764945472630600001_r12_insertion_R_4_3_1_IRC_R_prod
%nprocshared=8
#P M062X/Def2TZVPP ! ASE formatted method and basis
Symm(None)
scf(xqc)
pop(None)
freq
opt(CalcFC)

Gaussian input prepared by ASE

0 1
C                 1.2791960000        0.0047070000       -0.5339650000
O                 2.0345250000       -0.8034950000       -0.1066780000
C                -0.1822110000       -0.3201870000       -0.7154210000
C                -0.6388330000        0.1486570000        0.7724400000
F                -1.4590930000        1.1781510000        0.6767860000
F                -1.1048530000       -0.8991520000        1.4247760000
F                 0.3719030000        0.5909370000        1.5456160000
F                -0.7466600000        0.3324480000       -1.7430170000
F                -0.4042190000       -1.6153240000       -0.9509850000
O                 1.4446080000        1.3216530000       -0.6439570000
H                 2.3458720000        1.5471900000       -0.3756760000


