%mem=28GB
%chk=1642764945472630600001_R_Addition_MultipleBond_1_10_11_IRC_F
%nprocshared=8
#P mp2/6-31G ! ASE formatted method and basis
Symm(None)
scf(xqc)
pop(None)
guess(Read,Mix)
geom(AllCheck,NoKeepConstants)
irc(RCFC,forward,MaxPoints=100,StepSize=2)

Gaussian input prepared by ASE

0 1
C                 1.4918600000        0.1834500000        0.0055240000
O                 2.3431990000       -0.7671760000       -0.2908670000
C                -0.0085820000        0.0248180000        0.0328670000
C                -0.6623750000        0.4151780000        1.3728130000
F                -2.0098460000        0.0813440000        1.3795570000
F                -0.0174600000       -0.2763480000        2.4029240000
F                -0.5337530000        1.7795760000        1.6019030000
F                -0.5751170000        0.8361290000       -0.9787680000
F                -0.3435920000       -1.3168020000       -0.2288500000
O                 2.0941950000        1.3220520000        0.2593010000
H                 3.0901220000        0.3864510000       -0.0432120000


