%mem=28GB
%chk=1642764945472630600001_R_Addition_MultipleBond_1_10_11_IRC_R_prod
%nprocshared=8
#P mp2/6-31G ! ASE formatted method and basis
Symm(None)
scf(xqc)
pop(None)
guess(Mix,Always)
freq
opt(CalcFC)

Gaussian input prepared by ASE

0 1
C                 1.4384400000       -0.1062490000       -0.5985400000
O                 2.1876940000       -1.0543940000       -0.8860410000
C                -0.1067690000       -0.1989980000       -0.5493650000
C                -0.7679330000        0.1855040000        0.7867450000
F                -2.1181660000       -0.1483460000        0.7959580000
F                -0.1260720000       -0.5061290000        1.8194520000
F                -0.6423440000        1.5502690000        1.0185590000
F                -0.6810960000        0.6079530000       -1.5617880000
F                -0.4519590000       -1.5425170000       -0.8112650000
O                 1.9774110000        1.1247080000       -0.3156500000
H                 2.9581740000        1.0406990000       -0.3973860000


