%mem=28GB
%chk=1642764945472630600001_r12_insertion_R_2_1_3_IRC_R
%nprocshared=8
#P M062X/Def2TZVPP ! ASE formatted method and basis
Symm(None)
scf(xqc)
pop(None)
geom(AllCheck,NoKeepConstants)
guess(Read)
irc(RCFC,reverse,MaxPoints=100,StepSize=2)

Gaussian input prepared by ASE

0 1
C                 1.3603330000        0.8894410000       -0.0964670000
O                 1.6191920000       -0.2568900000       -0.5736780000
C                 0.0753270000       -0.3817980000        0.1876000000
C                -0.6238490000        0.2684000000        1.4251440000
F                -1.1073380000        1.4575250000        1.1297100000
F                -1.6316710000       -0.5076170000        1.8130050000
F                 0.2408360000        0.3723860000        2.4241050000
F                -0.7275120000       -0.3232570000       -0.8459210000
F                 0.2617910000       -1.6545070000        0.5565040000
O                 2.3277980000        1.7595490000       -0.0668920000
H                 3.1345900000        1.3481750000       -0.4410100000


