%mem=28GB
%chk=1642764945472630600001_r12_insertion_R_5_4_7_IRC_R_prod
%nprocshared=8
#P M062X/Def2TZVPP ! ASE formatted method and basis
Symm(None)
scf(xqc)
pop(None)
freq
opt(CalcFC)

Gaussian input prepared by ASE

0 1
C                 1.4247470000       -0.1745690000       -0.7608130000
O                 1.9495670000       -0.9491070000       -1.4866950000
C                -0.0872550000       -0.4230700000       -0.4164000000
C                -0.7476570000        0.3991180000        0.7705830000
F                -1.7671870000        1.1123390000        0.3372840000
F                -1.1421880000       -0.4032110000        1.7358850000
F                 0.1136160000        1.2744840000        1.3386970000
F                -0.7865230000       -0.1671670000       -1.5332970000
F                -0.2327870000       -1.7220860000       -0.1463170000
O                 2.0442230000        0.8974540000       -0.2869770000
H                 1.5141960000        1.4068030000        0.3317090000


