%mem=28GB
%chk=1642764945472630600001_r12_insertion_R_5_4_3_IRC_R_prod
%nprocshared=8
#P M062X/Def2TZVPP ! ASE formatted method and basis
Symm(None)
scf(xqc)
pop(None)
freq
opt(CalcFC)

Gaussian input prepared by ASE

0 1
C                 1.0404010000        0.3640040000        0.0992090000
O                 1.3147570000        1.5234880000        0.0027400000
C                -0.4167650000        0.0421230000       -1.4906730000
C                -0.0490180000       -0.1202390000        1.0884040000
F                -1.0862380000        0.7123380000        1.1272020000
F                -0.5423710000       -1.3342580000        0.8278780000
F                 0.5334180000       -0.1471980000        2.2785310000
F                -1.2572420000        0.9492840000       -1.7887910000
F                -0.7905840000       -1.0632150000       -2.0003210000
O                 1.8222710000       -0.6703040000       -0.2621760000
H                 2.6205460000       -0.2976910000       -0.6573730000


