%mem=28GB
%chk=1642764945472630600001_r12_insertion_R_5_4_3
%nprocshared=8
#P M062X/Def2TZVPP ! ASE formatted method and basis
Symm(None)
scf(xqc)
pop(None)
opt(NoFreeze,TS,CalcAll,NoEigentest,MaxCycle=999)

Gaussian input prepared by ASE

0 1
C                 1.5169460000        0.3580000000        0.1134450000
O                 2.0450060000        0.3325210000        1.1724950000
C                -0.0266550000        0.2843480000       -0.2160210000
C                -0.3963250000        0.1296370000        1.9467320000
F                -1.6190490000        0.1294870000        0.8094780000
F                -0.4794530000       -0.9081750000        2.4527220000
F                -0.5918470000        1.0849890000        2.5751220000
F                -0.5053560000        1.3326750000       -0.6676770000
F                -0.3824720000       -0.7401440000       -0.7952820000
O                 2.2033350000        0.4596860000       -1.0237120000
H                 3.1653680000        0.5083790000       -0.8552020000

1 2 F
1 3 F
1 10 F
3 4 F
3 8 F
3 9 F
4 5 F
4 6 F
4 7 F
10 11 F


