%mem=28GB
%chk=1642764945472630600001_r12_insertion_R_2_1_3
%nprocshared=8
#P M062X/Def2TZVPP ! ASE formatted method and basis
Symm(None)
scf(xqc)
pop(None)
opt(NoFreeze,TS,CalcAll,NoEigentest,MaxCycle=999)

Gaussian input prepared by ASE

0 1
C                 1.2882350000        0.9620290000        0.1949310000
O                 1.9376130000       -0.5445380000       -0.1172630000
C                 0.0745750000       -0.3671680000        0.2108070000
C                -0.5853350000        0.2427770000        1.4144580000
F                -1.1346430000        1.4379640000        1.2038170000
F                -1.6006300000       -0.5178870000        1.8391760000
F                 0.2016070000        0.3770360000        2.4838640000
F                -0.4296510000       -0.0975120000       -0.9499420000
F                 0.0622910000       -1.6487410000        0.2938630000
O                 2.1774150000        1.7919990000       -0.3391050000
H                 2.9380190000        1.3354460000       -0.7225050000

1 2 F
1 3 F
1 10 F
3 4 F
3 8 F
3 9 F
4 5 F
4 6 F
4 7 F
10 11 F


