%mem=28GB
%chk=1642764945472630600001_ketoenol_2_1_3_8
%nprocshared=8
#P M062X/Def2TZVPP ! ASE formatted method and basis
Symm(None)
scf(xqc)
pop(None)
opt(NoFreeze,TS,CalcAll,NoEigentest,MaxCycle=999)

Gaussian input prepared by ASE

0 1
C                 1.1153190000        0.0734690000        0.2232800000
O                 0.9575150000       -0.9876780000       -0.2806750000
C                 1.8519170000        1.0576530000       -0.6591510000
C                 1.0800360000        2.1343930000       -1.3921830000
F                 0.6573080000        3.1435150000       -0.6350650000
F                 1.7549840000        2.7528460000       -2.3639460000
F                -0.0329940000        1.7283410000       -2.0002410000
F                 1.8481350000       -0.4157520000       -1.8584510000
F                 3.1332840000        1.2418300000       -0.4721030000
O                 0.7074440000        0.4675960000        1.4409640000
H                 0.2443470000       -0.2587270000        1.8812440000



