%mem=28GB
%chk=1642764945472630600001_r12_insertion_R_3_1_2
%nprocshared=8
#P M062X/Def2TZVPP ! ASE formatted method and basis
Symm(None)
scf(xqc)
pop(None)
opt(NoFreeze,TS,CalcAll,NoEigentest,MaxCycle=999)

Gaussian input prepared by ASE

0 1
C                 1.2459590000        0.9382130000       -0.3241840000
O                 1.6797840000       -0.4761470000        0.7011860000
C                -0.0393080000       -0.0787680000       -0.0036620000
C                -0.5388730000        0.2424740000        1.3978160000
F                -1.8163270000        0.6052630000        1.4162660000
F                -0.4588720000       -0.7988160000        2.2261590000
F                 0.1109640000        1.2355410000        1.9964920000
F                -0.8403620000        0.3981530000       -0.9362730000
F                -0.0301220000       -1.3435370000       -0.3397420000
O                 2.4719700000        1.3984200000       -0.5242860000
H                 3.1446810000        0.8506160000       -0.0976740000

1 2 F
1 3 F
1 10 F
3 4 F
3 8 F
3 9 F
4 5 F
4 6 F
4 7 F
10 11 F


