%mem=28GB
%chk=1642764945472630600001_r12_insertion_R_1_10_11
%nprocshared=8
#P M062X/Def2TZVPP ! ASE formatted method and basis
Symm(None)
scf(xqc)
pop(None)
opt(NoFreeze,TS,CalcAll,NoEigentest,MaxCycle=999)

Gaussian input prepared by ASE

0 1
C                 1.4876400000       -0.3775920000        0.0223380000
O                 2.3341770000       -1.1871160000       -0.0597760000
C                -0.0086920000       -0.0666200000       -0.0687470000
C                -0.4782580000        0.4350140000        1.3150890000
F                -1.7792180000        0.2562610000        1.4786090000
F                 0.1014770000       -0.2062660000        2.3237240000
F                -0.2582440000        1.7277110000        1.4976700000
F                -0.2388840000        0.8424450000       -1.0324070000
F                -0.6954750000       -1.1374040000       -0.4760210000
O                 2.3341870000        1.5129700000        0.7633710000
H                 2.1307890000        1.1720010000       -0.2517500000

1 2 F
1 3 F
1 10 F
3 4 F
3 8 F
3 9 F
4 5 F
4 6 F
4 7 F
10 11 F


