%mem=28GB
%chk=1642764945472630600001_intra_H_migration_2_11_IRC_F
%nprocshared=8
#P M062X/Def2TZVPP ! ASE formatted method and basis
Symm(None)
scf(xqc)
pop(None)
geom(AllCheck,NoKeepConstants)
guess(Read)
irc(RCFC,forward,MaxPoints=100,StepSize=2)

Gaussian input prepared by ASE

0 1
C                 1.4839350000        0.2903140000       -1.1530800000
O                 0.5697740000        0.2436100000       -2.0099730000
C                 1.5552570000       -0.6276410000        0.0639380000
C                 2.5006380000       -1.8258690000       -0.1845290000
F                 2.4877380000       -2.6250920000        0.8679240000
F                 2.0915980000       -2.5005380000       -1.2509880000
F                 3.7355850000       -1.3973390000       -0.3920080000
F                 2.0125310000        0.0573850000        1.1163340000
F                 0.3408000000       -1.1058590000        0.3417230000
O                 2.3496260000        1.1605860000       -1.4132780000
H                 1.4303360000        1.1670570000       -2.3392270000


