%mem=28GB
%chk=1642764945472630600001_r12_insertion_R_5_4_7_IRC_F
%nprocshared=8
#P M062X/Def2TZVPP ! ASE formatted method and basis
Symm(None)
scf(xqc)
pop(None)
geom(AllCheck,NoKeepConstants)
guess(Read)
irc(RCFC,forward,MaxPoints=100,StepSize=2)

Gaussian input prepared by ASE

0 1
C                 1.8613470000        0.0818650000       -0.2673150000
O                 2.1908070000       -0.7789750000       -0.9956700000
C                 0.0302320000       -0.3353200000        0.0477120000
C                -0.7022290000        0.3303900000        1.0937060000
F                -1.4638030000        1.3102530000        0.8476680000
F                -0.8444330000       -0.1953110000        2.2351190000
F                 0.6560930000        1.6517760000        1.9046460000
F                -0.5178040000       -0.0614800000       -1.1483490000
F                 0.0526970000       -1.6554860000        0.2658400000
O                 2.2425760000        1.1032680000        0.2835830000
H                 1.4240140000        1.5204260000        1.2451630000


