%mem=28GB
%chk=1642764945472630600001_r12_insertion_R_2_1_10_IRC_F
%nprocshared=8
#P M062X/Def2TZVPP ! ASE formatted method and basis
Symm(None)
scf(xqc)
pop(None)
geom(AllCheck,NoKeepConstants)
guess(Read)
irc(RCFC,forward,MaxPoints=100,StepSize=2)

Gaussian input prepared by ASE

0 1
C                 1.5089340000       -0.5122280000       -0.1112640000
O                 2.6430380000       -0.8578550000       -0.1542080000
C                -0.0722660000       -0.0303350000       -0.0514390000
C                -0.4529580000        0.5413450000        1.3591380000
F                -1.7195020000        0.2199450000        1.5957520000
F                 0.2996840000       -0.0286340000        2.2918000000
F                -0.3551890000        1.8486460000        1.4278220000
F                -0.3267950000        0.8079960000       -1.0281350000
F                -0.8698690000       -1.1023460000       -0.2463320000
O                 1.6639400000        0.9695930000        0.1612810000
H                 2.6104730000        1.1152820000        0.2676880000


