%mem=28GB
%chk=1642764945472630600001_r13_insertion_ROR_8_3_1_10_IRC_F
%nprocshared=8
#P M062X/Def2TZVPP ! ASE formatted method and basis
Symm(None)
scf(xqc)
pop(None)
geom(AllCheck,NoKeepConstants)
guess(Read)
irc(RCFC,forward,MaxPoints=100,StepSize=2)

Gaussian input prepared by ASE

0 1
C                 4.1080190000        1.5727470000       -0.7951770000
O                 4.6012230000        2.5584890000       -0.9922820000
C                 1.1577830000        0.3459270000        0.2794880000
C                 1.5660500000       -0.6280630000        1.4045420000
F                 1.0420470000       -1.8249480000        1.2114040000
F                 2.8908430000       -0.7292920000        1.3914620000
F                 1.1812320000       -0.1583590000        2.5750940000
F                -0.5500670000        0.3795080000        0.5176740000
F                 1.3148710000       -0.2009620000       -0.8910770000
O                 1.2162250000        1.5925480000        0.4135250000
H                 0.0006820000        1.4259790000        0.5696370000


