%mem=28GB
%chk=1642764945472630600001_r12_insertion_R_5_4_6
%nprocshared=8
#P M062X/Def2TZVPP ! ASE formatted method and basis
Symm(None)
scf(xqc)
pop(None)
opt(NoFreeze,TS,CalcAll,NoEigentest,MaxCycle=999)

Gaussian input prepared by ASE

0 1
C                 1.3896460000       -0.1000470000        0.0216100000
O                 1.9306210000       -1.1509580000       -0.0680470000
C                -0.1367400000        0.1751450000       -0.2517670000
C                -0.6787440000        0.6996400000        0.9110830000
F                -1.0626740000       -0.4341550000        2.0755580000
F                 0.6864210000        0.1417130000        2.5435790000
F                -1.0889010000        1.7303100000        1.2808330000
F                -0.2708790000        0.9793740000       -1.3468800000
F                -0.7323810000       -0.9643350000       -0.6756550000
O                 2.0040580000        1.0349750000        0.3400910000
H                 2.8890720000        0.8597470000        0.6816970000

1 2 F
1 3 F
1 10 F
3 4 F
3 8 F
3 9 F
4 5 F
4 6 F
4 7 F
10 11 F


