%mem=28GB
%chk=1642764945472630600001_r13_insertion_ROR_4_3_1_2_IRC_F_prod
%nprocshared=8
#P M062X/Def2TZVPP ! ASE formatted method and basis
Symm(None)
scf(xqc)
pop(None)
freq
opt(CalcFC)

Gaussian input prepared by ASE

0 1
C                 1.0566020000        0.5417750000       -0.0889680000
O                -0.0565050000        0.9787720000        0.6048580000
C                 1.2463580000       -0.7590440000       -0.2123160000
C                -1.2632230000        0.4019850000        0.2581500000
F                -1.3678020000       -0.9102590000        0.4205820000
F                -2.1517650000        0.9552930000        1.0512510000
F                -1.5623420000        0.6210700000       -1.0208700000
F                 1.9154620000       -1.3265660000       -1.1815800000
F                 0.8061800000       -1.6128640000        0.6818700000
O                 1.9797110000        1.4446550000       -0.4563800000
H                 1.5877620000        2.1918750000       -0.9256280000


