%mem=28GB
%chk=1642764945472630600001_r12_insertion_R_1_3_8_IRC_F_prod
%nprocshared=8
#P M062X/Def2TZVPP ! ASE formatted method and basis
Symm(None)
scf(xqc)
pop(None)
freq
opt(CalcFC)

Gaussian input prepared by ASE

0 1
C                 1.4090840000       -0.3011170000       -0.5802180000
O                 1.9987980000       -1.1142250000       -1.2086890000
C                -0.1098780000       -0.2309100000       -0.5523320000
C                -0.7766590000        0.2506540000        0.8452320000
F                -1.9595030000       -0.3127430000        1.0763950000
F                -0.0062580000       -0.1339970000        1.8720910000
F                -0.9138040000        1.5576160000        0.8846920000
F                -0.0962620000        0.5822750000       -1.6857000000
F                -0.7459520000       -1.3511870000       -0.8537710000
O                 1.8536730000        0.8593230000       -0.0941850000
H                 2.7959230000        0.9496900000       -0.2891910000


