%mem=28GB
%chk=1642764945472630600001_r12_insertion_R_4_3_8_IRC_R_prod
%nprocshared=8
#P M062X/Def2TZVPP ! ASE formatted method and basis
Symm(None)
scf(xqc)
pop(None)
freq
opt(CalcFC)

Gaussian input prepared by ASE

0 1
C                 1.4568260000       -0.2938850000       -0.4515380000
O                 2.0191510000       -1.0728890000       -1.1489840000
C                 0.0785590000       -0.5874740000        0.1841700000
C                -0.9049180000        0.5931410000        0.1012160000
F                -2.0946670000        0.2190730000        0.5459610000
F                 0.2406520000       -0.9272320000        1.4734120000
F                -0.5037750000        1.6344560000        0.8102290000
F                -1.0044310000        0.9436350000       -1.1791540000
F                -0.4818230000       -1.6056700000       -0.4687860000
O                 1.8992540000        0.9094200000       -0.0984220000
H                 2.7689740000        1.0444720000       -0.5002000000


