%mem=28GB
%chk=1642764945472630600001_intra_H_migration_suprafacial_2_11_IRC_R_prod
%nprocshared=8
#P M062X/Def2TZVPP ! ASE formatted method and basis
Symm(None)
scf(xqc)
pop(None)
freq
opt(CalcFC)

Gaussian input prepared by ASE

0 1
C                -0.6055000000        1.1523180000       -0.8296590000
O                -1.5452970000        1.0159880000       -1.5437630000
C                -0.3768300000        0.2536160000        0.4276720000
C                 0.6166510000       -0.8999810000        0.1557170000
F                 0.6808370000       -1.7054640000        1.2041580000
F                 0.2125100000       -1.5944250000       -0.8999530000
F                 1.8253920000       -0.4122820000       -0.0876300000
F                 0.0841990000        0.9589420000        1.4700670000
F                -1.5483100000       -0.2940520000        0.7626510000
O                 0.3265380000        2.0654090000       -1.0626700000
H                 0.0458340000        2.5156860000       -1.8730930000


