%mem=28GB
%chk=1642804744642041580601_well
%nprocshared=8
#P M062X/Def2TZVPP ! ASE formatted method and basis
Symm(None)
scf(xqc)
pop(None)
freq
opt(CalcFC)

Gaussian input prepared by ASE

0 1
C                 1.7016720000        0.6898570000       -0.8153120000
O                 1.3635040000       -0.1588980000        0.1855850000
C                -1.0542190000       -0.0825850000       -0.3385480000
C                 0.0928850000       -0.0241470000        0.7107890000
F                -2.1870650000       -0.3598480000        0.2951390000
F                -0.0610170000       -1.0471970000        1.5443750000
F                -0.0131270000        1.1089070000        1.3983060000
F                -1.1993960000        1.0616260000       -0.9748340000
F                -0.8070010000       -1.0485110000       -1.2140410000
O                 2.9301980000        0.4288540000       -1.1151840000
H                 3.3125120000       -0.2853980000       -0.5685300000


