%mem=28GB
%chk=1642764945472630600001_intra_H_migration_suprafacial_2_11
%nprocshared=8
#P M062X/Def2TZVPP ! ASE formatted method and basis
Symm(None)
scf(xqc)
pop(None)
opt(NoFreeze,TS,CalcAll,NoEigentest,MaxCycle=999)

Gaussian input prepared by ASE

0 1
C                 1.3636920000        0.2413790000       -1.2368750000
O                 0.6923990000       -0.1063110000       -2.1530920000
C                 1.4768800000       -0.6374680000        0.0278580000
C                 2.4466460000       -1.8057060000       -0.2543450000
F                 2.7437740000       -2.5505680000        0.7981670000
F                 2.0147400000       -2.6938080000       -1.1430510000
F                 3.6349350000       -1.4577430000       -0.7260640000
F                 1.8916370000        0.0811620000        1.0820370000
F                 0.2832860000       -1.0889500000        0.4125330000
O                 2.0894610000        1.3535750000       -1.1858170000
H                 1.3003230000        0.9128880000       -1.9751570000



