%mem=28GB
%chk=1642764945472630600001_r12_insertion_R_8_3_4_IRC_F_prod
%nprocshared=8
#P M062X/Def2TZVPP ! ASE formatted method and basis
Symm(None)
scf(xqc)
pop(None)
freq
opt(CalcFC)

Gaussian input prepared by ASE

0 1
C                 1.5722480000       -0.1185540000       -0.7089860000
O                 2.3767050000       -0.9621680000       -0.9567890000
C                 0.0159580000       -0.3541450000       -0.4021560000
C                -0.8415790000        0.2300750000        0.8778030000
F                -1.7726250000        1.1269970000        0.5402100000
F                -1.5171820000       -0.7594420000        1.4420930000
F                -0.0490510000        0.8746610000        1.7246170000
F                -0.6321400000        0.3226010000       -1.3585740000
F                -0.1341510000       -1.6677220000       -0.6230100000
O                 1.7705850000        1.1827760000       -0.8447070000
H                 2.6752240000        1.3275250000       -1.1547390000


