%mem=28GB
%chk=1642764945472630600001_r13_insertion_ROR_4_3_1_2
%nprocshared=8
#P M062X/Def2TZVPP ! ASE formatted method and basis
Symm(None)
scf(xqc)
pop(None)
opt(NoFreeze,TS,CalcAll,NoEigentest,MaxCycle=999)

Gaussian input prepared by ASE

0 1
C                 2.4466160000        1.0784240000       -0.0025480000
O                 0.8793980000        1.9055680000        0.9246270000
C                 1.8808500000       -0.2555400000        0.0515470000
C                -0.0138940000        0.3814610000       -0.0129970000
F                -0.3852280000       -0.6482550000       -0.6115100000
F                -0.5295490000        0.3499550000        1.1150580000
F                -0.2357710000        1.3292660000       -0.7754560000
F                 2.1109680000       -1.0985190000       -0.8846550000
F                 1.9400230000       -0.8808750000        1.1556290000
O                 3.1858460000        1.7281000000       -0.8595770000
H                 3.0491660000        2.6808560000       -0.7141420000

1 2 F
1 3 F
1 10 F
3 4 F
3 8 F
3 9 F
4 5 F
4 6 F
4 7 F
10 11 F


