%mem=28GB
%chk=1642764945472630600001_r13_insertion_ROR_4_3_1_10_IRC_R_prod
%nprocshared=8
#P M062X/Def2TZVPP ! ASE formatted method and basis
Symm(None)
scf(xqc)
pop(None)
freq
opt(CalcFC)

Gaussian input prepared by ASE

0 1
C                 1.1179410000        0.8710410000        0.1109970000
O                 1.5779260000        1.5743500000       -0.7309240000
C                 0.8502730000       -0.5787130000       -0.0501370000
C                -1.1261930000       -0.0727880000       -0.0872160000
F                -1.6029670000       -1.2011300000        0.3708610000
F                -1.8449890000        0.8747660000        0.5770600000
F                -1.3436110000        0.2369090000       -1.3506180000
F                 1.5533570000       -1.1505490000       -1.0361360000
F                 0.9515400000       -1.3979520000        0.9779810000
O                 0.4804470000        1.2545270000        1.2203480000
H                 0.4121500000        2.2175100000        1.2338140000


