%mem=28GB
%chk=1642764945472630600001_r13_insertion_ROR_8_3_1_2_IRC_F
%nprocshared=8
#P M062X/Def2TZVPP ! ASE formatted method and basis
Symm(None)
scf(xqc)
pop(None)
geom(AllCheck,NoKeepConstants)
guess(Read)
irc(RCFC,forward,MaxPoints=100,StepSize=2)

Gaussian input prepared by ASE

0 1
C                 2.4608710000        1.1561140000       -0.0715320000
O                 2.4707430000        1.8239990000        0.9628210000
C                 1.9459390000       -0.1477150000        0.0146740000
C                 1.6219800000       -0.9403300000        1.2809520000
F                 2.3205490000       -2.0793990000        1.2036510000
F                 1.9417760000       -0.3242710000        2.3879360000
F                 0.3364250000       -1.2471890000        1.2799120000
F                 0.5656670000        1.8236210000        0.9577190000
F                 1.7072410000       -0.8176700000       -1.0545940000
O                 2.6938360000        1.6219730000       -1.3015540000
H                 2.8239080000        2.5771500000       -1.2420650000


