%mem=28GB
%chk=1642764945472630600001_r13_insertion_ROR_11_10_1_2_IRC_F_prod
%nprocshared=8
#P M062X/Def2TZVPP ! ASE formatted method and basis
Symm(None)
scf(xqc)
pop(None)
freq
opt(CalcFC)

Gaussian input prepared by ASE

0 1
C                -1.3165580000        0.1733560000       -0.2260440000
O                -3.6682720000        0.1698000000        0.0849090000
C                 0.1514080000        0.3194780000       -0.6314100000
C                 1.1177540000       -0.2413210000        0.4422580000
F                 2.3665630000       -0.0661820000        0.0480210000
F                 0.9229760000        0.3981160000        1.5848710000
F                 0.8891770000       -1.5322470000        0.6157540000
F                 0.3204010000       -0.3561580000       -1.7627610000
F                 0.4214910000        1.6047560000       -0.8163530000
O                -1.8563330000       -0.4120140000        0.5879340000
H                -4.5140080000       -0.0608380000        0.4947830000


