%mem=28GB
%chk=1642764945472630600001_r12_insertion_R_11_10_1
%nprocshared=8
#P M062X/Def2TZVPP ! ASE formatted method and basis
Symm(None)
scf(xqc)
pop(None)
opt(NoFreeze,TS,CalcAll,NoEigentest,MaxCycle=999)

Gaussian input prepared by ASE

0 1
C                 1.4784740000        0.3193160000       -0.0004110000
O                 2.1467850000       -0.3742950000        0.7652670000
C                -0.0871510000        0.0483060000       -0.0245670000
C                -0.6166570000        0.2497960000        1.4004430000
F                -1.9349920000        0.4101980000        1.4395430000
F                -0.3638780000       -0.7711320000        2.2104020000
F                -0.1198520000        1.3245080000        2.0006510000
F                -0.7059630000        0.8604390000       -0.8934480000
F                -0.3409750000       -1.1583220000       -0.4879360000
O                 1.9113820000        1.0847890000       -0.6444690000
H                 3.5623220000        0.9778010000       -0.2533720000

1 2 F
1 3 F
1 10 F
3 4 F
3 8 F
3 9 F
4 5 F
4 6 F
4 7 F
10 11 F


