%mem=28GB
%chk=1642764945472630600001_r12_insertion_R_8_3_1_IRC_R
%nprocshared=8
#P M062X/Def2TZVPP ! ASE formatted method and basis
Symm(None)
scf(xqc)
pop(None)
geom(AllCheck,NoKeepConstants)
guess(Read)
irc(RCFC,reverse,MaxPoints=100,StepSize=2)

Gaussian input prepared by ASE

0 1
C                 1.7451500000        0.0340390000       -0.5719500000
O                 2.0690410000       -0.8230510000       -1.2921850000
C                 0.2127970000       -0.5123810000        0.6205620000
C                -0.6491290000        0.4406520000        1.4696290000
F                -1.7988840000        0.7814390000        0.9148990000
F                -0.8914160000       -0.1798020000        2.6203060000
F                 0.0440570000        1.5543060000        1.7299500000
F                 0.3847080000        0.6877910000       -0.8110590000
F                -0.5609520000       -1.4098770000        0.1215710000
O                 2.4665530000        0.8965700000        0.1033170000
H                 1.9075730000        1.5017160000        0.6070560000


