%mem=28GB
%chk=1642764945472630600001_r13_insertion_CO2_3_11
%nprocshared=8
#P M062X/Def2TZVPP ! ASE formatted method and basis
Symm(None)
scf(xqc)
pop(None)
opt(NoFreeze,TS,CalcAll,NoEigentest,MaxCycle=999)

Gaussian input prepared by ASE

0 1
C                 1.9082750000        0.0116720000        0.2653800000
O                 1.9892790000       -1.1400930000        0.5345090000
C                -0.0348010000        0.3692790000       -0.0453870000
C                -0.4085030000        0.0636580000        1.3437120000
F                -1.6623820000        0.4051360000        1.6756400000
F                -0.3195800000       -1.2294700000        1.6976880000
F                 0.3425890000        0.6988650000        2.2547920000
F                -0.9002260000        1.1093590000       -0.5739100000
F                -0.0065430000       -0.6193790000       -0.8122880000
O                 2.2523510000        1.2419460000        0.0244620000
H                 0.9104110000        1.3320320000       -0.0920960000

1 2 F
1 3 F
1 10 F
3 4 F
3 8 F
3 9 F
4 5 F
4 6 F
4 7 F
10 11 F


