%mem=28GB
%chk=1642764945472630600001_r12_insertion_R_3_4_5
%nprocshared=8
#P M062X/Def2TZVPP ! ASE formatted method and basis
Symm(None)
scf(xqc)
pop(None)
opt(NoFreeze,TS,CalcAll,NoEigentest,MaxCycle=999)

Gaussian input prepared by ASE

0 1
C                 1.5679390000        0.3533110000        0.1820050000
O                 2.1536940000        0.3128920000        1.2114630000
C                -0.1376180000        0.2654880000        0.0973380000
C                -0.2196920000        0.1405890000        1.7604510000
F                -1.9979600000        0.1426330000        0.4655260000
F                -0.3149980000       -0.9398870000        2.3270230000
F                -0.4216810000        1.1108290000        2.4756930000
F                -0.5056540000        1.3866080000       -0.4523910000
F                -0.3900260000       -0.7852510000       -0.6118840000
O                 2.1154060000        0.4667560000       -0.9961850000
H                 3.0800840000        0.5174460000       -0.9469380000

1 2 F
1 3 F
1 10 F
3 4 F
3 8 F
3 9 F
4 5 F
4 6 F
4 7 F
10 11 F


