%mem=28GB
%chk=1642764945472630600001_r12_insertion_R_1_3_4_IRC_F_prod
%nprocshared=8
#P M062X/Def2TZVPP ! ASE formatted method and basis
Symm(None)
scf(xqc)
pop(None)
freq
opt(CalcFC)

Gaussian input prepared by ASE

0 1
C                 1.2247890000       -0.0763230000       -0.5911700000
O                 1.8884110000       -0.8219340000        0.0598050000
C                -0.1996450000       -0.3828190000       -0.8511990000
C                -0.4861010000        0.2159480000        0.8316110000
F                -1.3595920000        1.1790830000        0.6660560000
F                -0.9101890000       -0.8508490000        1.4616100000
F                 0.4487580000        0.7520760000        1.6734200000
F                -0.8821260000        0.3036820000       -1.7677370000
F                -0.5140890000       -1.6598730000       -1.0450860000
O                 1.3916060000        1.2367980000       -0.7590010000
H                 2.1729600000        1.5127030000       -0.2596220000


