%mem=28GB
%chk=1642764945472630600001_r12_insertion_R_3_1_10_IRC_F
%nprocshared=8
#P M062X/Def2TZVPP ! ASE formatted method and basis
Symm(None)
scf(xqc)
pop(None)
geom(AllCheck,NoKeepConstants)
guess(Read)
irc(RCFC,forward,MaxPoints=100,StepSize=2)

Gaussian input prepared by ASE

0 1
C                 1.5314490000       -0.4822710000       -0.1086190000
O                 2.6643910000       -0.8342200000       -0.1197570000
C                -0.0479350000        0.0080970000       -0.0920440000
C                -0.4899370000        0.4964270000        1.3319630000
F                -1.7676460000        0.1713940000        1.4910860000
F                 0.2163730000       -0.1349600000        2.2613450000
F                -0.3886390000        1.7963600000        1.4843730000
F                -0.2527210000        0.9059360000       -1.0265820000
F                -0.8415020000       -1.0437690000       -0.3875390000
O                 1.6820430000        0.9793180000        0.2597300000
H                 2.6236220000        1.1090890000        0.4181440000


