%mem=28GB
%chk=1642764945472630600001_r12_insertion_R_10_1_3
%nprocshared=8
#P M062X/Def2TZVPP ! ASE formatted method and basis
Symm(None)
scf(xqc)
pop(None)
opt(NoFreeze,TS,CalcAll,NoEigentest,MaxCycle=999)

Gaussian input prepared by ASE

0 1
C                 1.5942980000       -0.6301870000       -0.0439530000
O                 2.6105550000       -1.2371390000       -0.0977960000
C                -0.0639190000        0.0680200000       -0.0968120000
C                -0.4463430000        0.4609630000        1.3020840000
F                -1.7072180000        0.1397160000        1.5915240000
F                 0.2801140000       -0.1306270000        2.2565090000
F                -0.3638810000        1.7710570000        1.5401280000
F                -0.1444390000        0.9612350000       -1.0265000000
F                -0.7657220000       -0.9080450000       -0.5478340000
O                 1.5448430000        1.0085870000        0.2736440000
H                 2.3912100000        1.4678270000        0.3611020000

1 2 F
1 3 F
1 10 F
3 4 F
3 8 F
3 9 F
4 5 F
4 6 F
4 7 F
10 11 F


