%mem=28GB
%chk=951592011700400000002_well
%nprocshared=8
#P M062X/Def2TZVPP ! ASE formatted method and basis
Symm(None)
scf(xqc)
pop(None)
freq
opt(CalcFC)

Gaussian input prepared by ASE

0 2
C                 1.5441690000        0.0003320000        0.0002590000
O                 2.1887910000       -0.9973350000        0.0102840000
C                -0.0000900000       -0.0004000000        0.0000560000
F                -0.4660170000        0.8631560000       -0.9147880000
F                -0.4299560000       -1.2263690000       -0.2977570000
O                 2.0106220000        1.2448180000       -0.0010820000
H                 2.9772360000        1.2080680000        0.0132040000


