%chk=gaussian_jobs/C2F5SO3H.chk
%mem=3800MB
%nprocshared=8
# opt=(maxcyc=999,noeigen) wb97xd/aug-cc-pVTZ NOSYM int=superfine scf=(verytight,xqc)

C2F5SO3H - wb97xd/6-311++G(d,p) Geometry Optimization (verytight, superfine)

0 1
C       1.474219     -0.003442      0.284837
C       0.322843     -0.530702     -0.532312
F       0.332641      0.014661     -1.791984
F       0.446984     -1.882232     -0.722517
S      -1.205101     -0.112838      0.344024
O      -2.330550     -0.806512     -0.253523
O      -1.036063     -0.094300      1.779908
O      -1.400251      1.424039     -0.132633
F       1.405908      1.329358      0.504677
F       1.599176     -0.614479      1.485014
F       2.652835     -0.217891     -0.364883
H      -2.262641      1.494338     -0.600605

1 2 1.0 9 1.0 10 1.0 11 1.0
2 3 1.0 4 1.0 5 1.0
3
4
5 6 1.0 7 1.0 8 1.0
6
7
8 12 1.0
9
10
11
12

