%chk=gaussian_jobs/CF3SO3H.chk
%mem=10GB
%nprocshared=8
#P iop(7/33=1) opt=calcfc freq M062X/6-31G(2df,p) scf=tight nosym scfcyc=6000

CF3SO3H - optimisation + frequencies (final coordinates)

0 1
C      -1.076305     -0.206801     -0.308028
F      -1.214674     -0.017372     -1.650659
F      -1.696829      0.845977      0.300506
F      -1.791510     -1.321884      0.011693
S       0.703851     -0.342832      0.209734
O       0.831706     -0.364997      1.655778
O       1.425678     -1.299256     -0.606614
O       1.243728      1.130932     -0.211628
H       1.574356      1.576231      0.599219

1 2 1.0 3 1.0 4 1.0 5 1.0
2
3
4
5 6 1.0 7 1.0 8 1.0
6
7
8 9 1.0
9

