%mem=28GB
%chk=1502984803620600000001_well
%nprocshared=8
#P M062X/Def2TZVPP ! ASE formatted method and basis
Symm(None)
scf(xqc)
pop(None)
freq
opt(CalcFC, Tight)

Gaussian input prepared by ASE

0 1
C                 0.2956960000        0.1589230000        0.1262220000
F                -0.5701150000        0.6776010000       -0.7343280000
F                 0.0916860000        0.6730230000        1.3206030000
S                 2.0054200000        0.5353220000       -0.4440400000
O                 2.8841740000        0.1749450000        0.6002660000
O                 2.1135400000        0.0430720000       -1.7708220000
O                 1.9226610000        2.1059110000       -0.4787120000
F                 0.1453150000       -1.1517070000        0.1673330000
H                 1.6526990000        2.4045050000       -1.3590300000


