%mem=28GB
%chk=1502823922432230600001_well
%nprocshared=8
#P M062X/Def2TZVPP ! ASE formatted method and basis
Symm(None)
scf(xqc)
pop(None)
freq
opt(CalcFC, Tight)

Gaussian input prepared by ASE

0 1
C                -1.4454670000        0.6634460000        0.3701550000
S                 0.9617180000        0.9535060000       -0.6421520000
O                -0.3658810000        1.4805730000        0.2653040000
O                 1.6838320000        0.0703200000        0.2318580000
O                 1.6498600000        2.3786110000       -0.5742490000
F                -2.4029090000        1.3315300000        0.9872920000
F                -1.8916710000        0.2849290000       -0.8251620000
F                -1.1775020000       -0.4330830000        1.0682910000
H                 1.9512110000        2.5684790000        0.3295060000


