%mem=28GB
%chk=1803646687765942100001_well
%nprocshared=8
#P M062X/Def2TZVPP ! ASE formatted method and basis
Symm(None)
scf(xqc)
pop(None)
freq
opt(CalcFC, Tight)

Gaussian input prepared by ASE

0 1
C                 0.0008170000       -1.0564170000       -0.8195220000
C                 0.1892900000       -0.1719210000        0.4318210000
F                 0.2811250000       -0.8792830000        1.5348870000
S                 0.8882350000        1.4098140000        0.3523940000
O                 1.4745830000        1.9105020000        1.5386500000
O                 1.1497980000        1.9572070000       -0.9261950000
O                -0.6551930000        0.9962790000        0.5438630000
F                -0.7411700000       -0.4382490000       -1.7170750000
F                 1.2027670000       -1.2941920000       -1.3423880000
F                -0.5476250000       -2.2107150000       -0.5001810000


