%mem=28GB
%chk=2003846667223680600001_r12_insertion_R_12_8_5_IRC_R_prod
%nprocshared=8
#P M062X/Def2TZVPP ! ASE formatted method and basis
Symm(None)
scf(xqc)
pop(None)
freq
opt(CalcFC)

Gaussian input prepared by ASE

0 1
C                -1.1045890000       -0.9802950000        0.0893840000
C                -0.5085980000        0.4491450000       -0.0333230000
F                -0.8803530000        0.9683150000       -1.2015530000
F                -0.9778500000        1.1993590000        0.9611090000
S                 1.3422420000        0.4353770000        0.0010530000
O                 1.7034150000       -0.1981110000        1.2142780000
O                 1.8035230000       -0.0017970000       -1.2716280000
O                 1.6800590000        1.9699880000       -0.0627220000
F                -0.5002430000       -1.7947390000       -0.7611010000
F                -0.9607650000       -1.4399200000        1.3180770000
F                -2.3969070000       -0.9319050000       -0.2024620000
H                 2.0594360000        2.1008920000       -0.9455870000


