%mem=28GB
%chk=2003846667223680600001_r12_insertion_R_2_1_9
%nprocshared=8
#P M062X/Def2TZVPP ! ASE formatted method and basis
Symm(None)
scf(xqc)
pop(None)
opt(NoFreeze,TS,CalcAll,NoEigentest,MaxCycle=999)

Gaussian input prepared by ASE

0 1
C                -0.8582690000       -1.0883060000        0.5731260000
C                 0.0493180000       -0.0341540000       -0.3504950000
F                -0.3232270000       -0.0620180000       -1.5453290000
F                -0.5851460000        1.2909120000        0.1135060000
S                 1.7578780000       -0.3287950000        0.0965650000
O                 1.7093660000       -0.7376270000        1.4388000000
O                 2.7918850000       -0.4107480000       -0.9044620000
O                 1.9069710000        1.2283760000        0.3170500000
F                 1.0123340000       -1.6708940000       -0.4271060000
F                -0.8212330000       -1.1463300000        1.7779890000
F                -1.6131300000       -1.9426020000        0.0466570000
H                 2.4211850000        1.7817740000       -0.2421050000

1 2 F
1 9 F
1 10 F
1 11 F
2 3 F
2 4 F
2 5 F
5 6 F
5 7 F
5 8 F
8 12 F


