%mem=28GB
%chk=2003846667223680600001_intra_H_migration_suprafacial_6_12_IRC_F_prod
%nprocshared=8
#P M062X/Def2TZVPP ! ASE formatted method and basis
Symm(None)
scf(xqc)
pop(None)
opt(CalcAll,Cartesian)

Gaussian input prepared by ASE

0 1
C                 0.5800200000       -1.3361930000       -0.7035890000
C                 0.5678470000        0.1222000000       -1.2176000000
F                 1.3305120000        0.8381050000       -0.3517060000
F                 1.1606240000        0.1443730000       -2.4077260000
S                -0.2687910000        1.1894440000        2.4536100000
O                -0.6641290000        0.6374590000       -1.3314830000
O                -0.6829710000        1.5749540000        3.7565100000
O                -1.2282000000        1.2840290000        1.3935380000
F                 0.0072740000       -1.3799720000        0.5052410000
F                -0.1019510000       -2.1213440000       -1.5192600000
F                 1.8175150000       -1.7945930000       -0.5950590000
H                -1.0153760000        0.8453000000       -0.4488260000


