%mem=28GB
%chk=2003846667223680600001_well_mp2
%nprocshared=8
#P mp2/6-31G ! ASE formatted method and basis
Symm(None)
scf(xqc)
pop(None)
freq
opt(CalcFC, Tight)

Gaussian input prepared by ASE

0 1
C                 1.5361850000        0.0604290000        0.2392050000
C                 0.2771860000       -0.5154410000       -0.4491640000
F                 0.2023660000       -0.0234250000       -1.6912990000
F                 0.3895420000       -1.8396730000       -0.5050320000
S                -1.3141570000       -0.1311100000        0.4010240000
O                -2.3034610000       -0.8885260000       -0.2770970000
O                -1.0878240000       -0.2022380000        1.7931640000
O                -1.4765180000        1.3852230000        0.0256880000
F                 1.3891900000        1.3605430000        0.4483280000
F                 1.7573550000       -0.5495840000        1.3874910000
F                 2.5792970000       -0.1304070000       -0.5576290000
H                -1.9491620000        1.4742060000       -0.8146770000


