%mem=28GB
%chk=2003846667223680600001_r12_insertion_R_9_1_2_IRC_F
%nprocshared=8
#P M062X/Def2TZVPP ! ASE formatted method and basis
Symm(None)
scf(xqc)
pop(None)
geom(AllCheck,NoKeepConstants)
guess(Read)
irc(RCFC,forward,MaxPoints=100,StepSize=2)

Gaussian input prepared by ASE

0 1
C                -1.3456550000       -1.0457370000        0.5135750000
C                 0.2824440000       -0.0771620000        0.2450570000
F                -0.2160460000        0.6258770000       -0.7699490000
F                 0.2257180000        0.5191760000        1.4205130000
S                 2.1185180000       -0.1243200000       -0.1509970000
O                 2.7993070000       -0.6432150000        0.9729350000
O                 2.2735300000       -0.6305600000       -1.4693040000
O                 2.3869270000        1.4351240000       -0.1789830000
F                 0.2852850000       -1.7343880000        0.2189260000
F                -1.6566140000       -1.6181640000        1.6207440000
F                -2.0165670000       -1.5851320000       -0.4407210000
H                 2.3110880000        1.7580880000       -1.0875960000


