%mem=28GB
%chk=2003846667223680600001_r13_insertion_ROR_3_2_5_6_IRC_R_prod
%nprocshared=8
#P M062X/Def2TZVPP ! ASE formatted method and basis
Symm(None)
scf(xqc)
pop(None)
freq
opt(CalcFC)

Gaussian input prepared by ASE

0 1
C                 0.2296810000       -1.3595580000       -0.7090850000
C                 0.6781860000       -0.3633310000        0.3113550000
F                -2.1356120000        0.5994120000        0.2968640000
F                 1.0827660000       -0.9316200000        1.4650540000
S                 0.2307830000        1.1795020000        0.4214380000
O                -1.3128260000        1.5610620000        0.8889860000
O                 0.9432450000        2.0052360000        1.3209540000
O                 0.0704980000        1.7060880000       -1.0319350000
F                -0.3686500000       -0.7821410000       -1.7551040000
F                 1.2793400000       -2.0427940000       -1.1775630000
F                -0.6119280000       -2.2548560000       -0.1953750000
H                 0.8056470000        1.4116060000       -1.5893430000


