%mem=28GB
%chk=2003846667223680600001_r12_insertion_R_1_2_3_IRC_F_prod
%nprocshared=8
#P M062X/Def2TZVPP ! ASE formatted method and basis
Symm(None)
scf(xqc)
pop(None)
freq
opt(CalcFC)

Gaussian input prepared by ASE

0 1
C                -1.2052280000       -0.2401660000       -0.7143080000
C                -0.4046850000       -0.0987440000        0.5977700000
F                -0.8630160000        1.0337990000       -1.5379380000
F                -0.9319220000        0.9152310000        1.2785740000
S                 1.4203080000        0.1595410000        0.3083190000
O                 1.9818000000        0.4832280000        1.5639490000
O                 1.8171420000       -0.9968680000       -0.4100160000
O                 1.3781050000        1.4155490000       -0.5905380000
F                -0.8737000000       -1.2883940000       -1.4056280000
F                -0.6099080000       -1.2391850000        1.2703900000
F                -2.4858210000       -0.3095460000       -0.4608910000
H                 0.6161980000        1.4001280000       -1.2045320000


