%mem=28GB
%chk=2003846667223680600001_r12_insertion_R_12_8_5
%nprocshared=8
#P M062X/Def2TZVPP ! ASE formatted method and basis
Symm(None)
scf(xqc)
pop(None)
opt(NoFreeze,TS,CalcAll,NoEigentest,MaxCycle=999)

Gaussian input prepared by ASE

0 1
C                -0.5905750000       -1.3091580000        0.2922160000
C                -0.0220020000        0.1116860000        0.1843700000
F                -0.4331150000        0.6939930000       -0.9455890000
F                -0.5264940000        0.8889980000        1.1380060000
S                 1.8720220000        0.2240940000        0.2691360000
O                 2.1950240000       -0.7658050000        1.3481590000
O                 2.3043100000       -0.1083280000       -1.1159100000
O                 2.2200320000        1.2518070000        0.1645160000
F                 0.1146170000       -2.2087290000       -0.3622130000
F                -0.6743540000       -1.7443130000        1.5449010000
F                -1.8289600000       -1.4127510000       -0.1963580000
H                 2.8174350000        1.2580990000       -1.4270430000

1 2 F
1 9 F
1 10 F
1 11 F
2 3 F
2 4 F
2 5 F
5 6 F
5 7 F
5 8 F
8 12 F


