%mem=28GB
%chk=2003846667223680600001_r12_insertion_R_9_1_10
%nprocshared=8
#P M062X/Def2TZVPP ! ASE formatted method and basis
Symm(None)
scf(xqc)
pop(None)
opt(NoFreeze,TS,CalcAll,NoEigentest,MaxCycle=999)

Gaussian input prepared by ASE

0 1
C                -0.8972170000       -0.9819480000        0.2857550000
C                -0.1362570000        0.1566350000        0.2096760000
F                -0.5021240000        1.0104460000       -0.8297580000
F                -0.3451080000        0.9843660000        1.3045880000
S                 1.6370980000       -0.3184550000        0.1196680000
O                 2.3500720000        0.0304960000        1.2852330000
O                 1.9413640000       -1.0584460000       -1.0607460000
O                 1.8046420000        1.0939700000       -0.5852110000
F                -0.1962560000       -2.3651990000       -0.3340580000
F                 1.1415700000       -1.6309260000        0.7977840000
F                -1.9059130000       -1.3681410000        0.8442910000
H                 2.5560680000        1.3268010000       -1.1430150000

1 2 F
1 9 F
1 10 F
1 11 F
2 3 F
2 4 F
2 5 F
5 6 F
5 7 F
5 8 F
8 12 F


