%mem=28GB
%chk=2003885976044371740001_well
%nprocshared=8
#P M062X/Def2TZVPP ! ASE formatted method and basis
Symm(None)
scf(xqc)
pop(None)
freq
opt(CalcFC, Tight)

Gaussian input prepared by ASE

0 1
C                 0.2519110000       -1.3573410000       -0.7099960000
C                 0.7604530000       -0.3461690000        0.2666500000
F                -2.1588230000        0.6581410000        0.2235270000
F                 1.2604850000       -0.9072580000        1.3859740000
S                 0.2192610000        1.1669320000        0.4444240000
O                -1.3200910000        1.4923870000        0.9658710000
O                 0.9288070000        1.9836770000        1.3542340000
O                -0.0166740000        1.7230580000       -0.9861780000
F                -0.1503750000       -0.7864440000       -1.8535260000
F                 1.2276400000       -2.2160300000       -1.0022230000
F                -0.7690400000       -2.0780350000       -0.2419710000
H                 0.6575750000        1.3956880000       -1.6005390000


