%mem=28GB
%chk=2003846667223680600001_r12_insertion_R_9_1_10_IRC_R
%nprocshared=8
#P M062X/Def2TZVPP ! ASE formatted method and basis
Symm(None)
scf(xqc)
pop(None)
geom(AllCheck,NoKeepConstants)
guess(Read)
irc(RCFC,reverse,MaxPoints=100,StepSize=2)

Gaussian input prepared by ASE

0 1
C                -0.6374620000       -1.2149740000        0.0784210000
C                -0.0361860000        0.1532130000        0.5138400000
F                -0.6884130000        1.0778580000       -0.1882820000
F                -0.2270070000        0.3927050000        1.7918050000
S                 1.6836840000       -0.1910550000       -0.0811200000
O                 2.8961630000        0.0075720000        0.6407170000
O                 1.3127050000       -1.1993350000       -1.0676860000
O                 1.7067950000        1.1192260000       -1.0384480000
F                -1.0525310000       -2.0957850000        0.8607670000
F                 1.2030220000       -1.5224670000        1.2177960000
F                -1.1774490000       -1.3023620000       -1.0556190000
H                 2.4646160000        1.6550040000       -0.7779840000


