%mem=28GB
%chk=2003846667223680600001_r12_insertion_R_2_5_8_IRC_F_prod
%nprocshared=8
#P M062X/Def2TZVPP ! ASE formatted method and basis
Symm(None)
scf(xqc)
pop(None)
freq
opt(CalcFC)

Gaussian input prepared by ASE

0 1
C                -1.1428750000       -0.9670880000        0.0127930000
C                -0.4426580000        0.4130670000       -0.2660200000
F                -0.4816370000        0.6825790000       -1.5743400000
F                -1.0758240000        1.3799500000        0.3903010000
S                 1.3287850000        0.4384050000        0.2399970000
O                 1.3683040000        0.3813940000        1.6501130000
O                 2.0230370000       -0.4594180000       -0.6122560000
O                 1.6688240000        1.9144400000       -0.1829910000
F                -1.6147230000       -1.4675970000       -1.1160320000
F                -0.2856270000       -1.8324410000        0.5352130000
F                -2.1429470000       -0.7988990000        0.8592470000
H                 1.9952660000        1.9315880000       -1.0942960000


