%mem=28GB
%chk=2003846667223680600001_r12_insertion_R_2_5_6
%nprocshared=8
#P M062X/Def2TZVPP ! ASE formatted method and basis
Symm(None)
scf(xqc)
pop(None)
opt(NoFreeze,TS,CalcAll,NoEigentest,MaxCycle=999)

Gaussian input prepared by ASE

0 1
C                -0.5032870000       -1.0692490000        0.2406840000
C                 0.1346850000        0.2374350000       -0.2646300000
F                -0.0412990000        0.3270000000       -1.5900530000
F                -0.4674520000        1.2729630000        0.3269340000
S                 1.9750150000        0.3373280000        0.1226830000
O                 1.7598890000       -1.9273470000        3.9727840000
O                 2.5100450000       -0.8689400000       -0.4810750000
O                 2.1833790000        1.5825420000       -0.8663320000
F                -0.1514990000       -2.0926490000       -0.5124350000
F                -0.1002360000       -1.2871390000        1.4926180000
F                -1.8248300000       -0.9640730000        0.2340980000
H                 1.9735230000        1.3317200000       -1.7810810000

1 2 F
1 9 F
1 10 F
1 11 F
2 3 F
2 4 F
2 5 F
5 6 F
5 7 F
5 8 F
8 12 F


