%mem=28GB
%chk=2003846667223680600001_r12_insertion_R_2_5_8_IRC_R
%nprocshared=8
#P M062X/Def2TZVPP ! ASE formatted method and basis
Symm(None)
scf(xqc)
pop(None)
geom(AllCheck,NoKeepConstants)
guess(Read)
irc(RCFC,reverse,MaxPoints=100,StepSize=2)

Gaussian input prepared by ASE

0 1
C                -1.1428600000       -0.9671030000        0.0127020000
C                -0.4432130000        0.4137890000       -0.2640470000
F                -0.4847750000        0.6864620000       -1.5716630000
F                -1.0750160000        1.3790940000        0.3958500000
S                 1.3291730000        0.4379200000        0.2387070000
O                 1.3715750000        0.3816840000        1.6487490000
O                 2.0207990000       -0.4610510000       -0.6145000000
O                 1.6696720000        1.9134610000       -0.1856110000
F                -1.6060680000       -1.4708400000       -1.1182210000
F                -0.2876800000       -1.8297860000        0.5428760000
F                -2.1490130000       -0.7989320000        0.8519690000
H                 1.9934420000        1.9301250000       -1.0978740000


