%mem=28GB
%chk=2003846667223680600001_r13_insertion_ROR_1_2_5_8_IRC_R_prod
%nprocshared=8
#P M062X/Def2TZVPP ! ASE formatted method and basis
Symm(None)
scf(xqc)
pop(None)
freq
opt(CalcFC)

Gaussian input prepared by ASE

0 1
C                -1.3657090000       -0.4613040000       -0.0136830000
C                 0.4248920000       -0.7020530000        0.3120190000
F                 0.7336020000       -0.9731600000        1.5754530000
F                 0.9326740000       -1.7160450000       -0.3923940000
S                 1.1201870000        0.9091910000       -0.2065300000
O                 2.0498760000        1.4923480000        0.6860550000
O                 1.3294310000        0.8451640000       -1.6103270000
O                -0.2606800000        1.5861810000        0.1140080000
F                -1.8583340000       -0.9840830000        1.0879170000
F                -2.2562040000        0.5615540000       -0.2413700000
F                -1.4407310000       -1.1073590000       -1.1609060000
H                -0.5183120000        2.2706890000       -0.5166100000


