%mem=28GB
%chk=2003846667223680600001_r13_insertion_ROR_1_2_5_6_IRC_F_prod
%nprocshared=8
#P M062X/Def2TZVPP ! ASE formatted method and basis
Symm(None)
scf(xqc)
pop(None)
opt(CalcAll,Cartesian)

Gaussian input prepared by ASE

0 1
C                -1.3193900000        0.5670090000        0.4129350000
C                 0.5314660000       -2.1551200000       -0.9596600000
F                 1.6647920000       -2.7684940000       -0.8945580000
F                -0.3249380000       -2.9861930000       -0.4668790000
S                 1.0637650000        1.0219750000       -0.6219060000
O                -0.3438250000        1.4835090000        0.2169150000
O                 1.8498680000        0.3043460000        0.3403490000
O                 1.5875090000        2.5178510000       -0.6656020000
F                -2.3285590000        1.1641980000        1.0215740000
F                -1.7592510000        0.0578160000       -0.7368580000
F                -0.9129280000       -0.4484480000        1.1709600000
H                 1.8484420000        2.8114790000        0.2226880000


