%mem=28GB
%chk=2003846667223680600001_r13_insertion_ROR_3_2_5_8_IRC_F_prod
%nprocshared=8
#P M062X/Def2TZVPP ! ASE formatted method and basis
Symm(None)
scf(xqc)
pop(None)
freq
opt(CalcFC)

Gaussian input prepared by ASE

0 1
C                -0.0093380000       -1.1785190000       -0.8662700000
C                 0.2715020000       -0.3327350000        0.4017990000
F                -2.2657050000       -0.6235330000        0.6831290000
F                 0.3226200000       -0.9982010000        1.4578180000
S                 0.5045180000        1.4829830000        0.4207080000
O                 1.1912550000        1.7526450000        1.6316630000
O                 1.1153690000        1.7745300000       -0.8267880000
O                -0.9492580000        1.5963780000        0.4610060000
F                -0.7514060000       -0.5284640000       -1.7227260000
F                 1.2040670000       -1.3843020000       -1.3732940000
F                -0.5480200000       -2.3365510000       -0.5603610000
H                -2.2426920000        0.3083750000        0.6607200000


