%mem=28GB
%chk=2003846667223680600001_r13_insertion_ROR_1_2_5_8_IRC_F_prod
%nprocshared=8
#P M062X/Def2TZVPP ! ASE formatted method and basis
Symm(None)
scf(xqc)
pop(None)
opt(CalcAll,Cartesian)

Gaussian input prepared by ASE

0 1
C                -1.8705830000        0.1070170000       -0.2641240000
C                 1.0216120000       -1.5435960000        0.6990770000
F                 0.8122190000       -0.9601390000        1.8330280000
F                 1.5554680000       -2.6798600000        1.0073820000
S                 1.6401380000        1.1874780000       -1.2729030000
O                 2.2517350000        1.2948360000        0.0124760000
O                 1.1705770000        2.3820520000       -1.8927560000
O                -0.9229730000        0.9777720000        0.1263670000
F                -2.0251460000       -0.8930660000        0.6094720000
F                -3.0630700000        0.6875180000       -0.3994890000
F                -1.5089920000       -0.4037140000       -1.4254220000
H                -1.1880720000        1.4222020000        0.9395520000


