%mem=28GB
%chk=2003846667223680600001_r12_insertion_R_8_5_2_IRC_R_prod
%nprocshared=8
#P M062X/Def2TZVPP ! ASE formatted method and basis
Symm(None)
scf(xqc)
pop(None)
freq
opt(CalcFC)

Gaussian input prepared by ASE

0 1
C                -1.1408860000       -0.9694760000        0.0100680000
C                -0.4434710000        0.4129030000       -0.2650140000
F                -0.4825480000        0.6854550000       -1.5727560000
F                -1.0787830000        1.3769190000        0.3933780000
S                 1.3276550000        0.4407580000        0.2419620000
O                 1.3669410000        0.3873650000        1.6521970000
O                 2.0225340000       -0.4588640000       -0.6079230000
O                 1.6668880000        1.9160080000       -0.1843660000
F                -1.5942250000       -1.4775540000       -1.1229180000
F                -0.2869620000       -1.8281340000        0.5487890000
F                -2.1537140000       -0.8022530000        0.8415280000
H                 1.9922060000        1.9315640000       -1.0961040000


