%mem=28GB
%chk=2003846667223680600001_r12_insertion_R_6_5_7_IRC_R_prod
%nprocshared=8
#P M062X/Def2TZVPP ! ASE formatted method and basis
Symm(None)
scf(xqc)
pop(None)
freq
opt(CalcFC)

Gaussian input prepared by ASE

0 1
C                -1.1339560000       -0.6737990000        0.6795330000
C                -0.6245790000        0.3477080000       -0.3547150000
F                -1.0547070000       -0.0590500000       -1.5642000000
F                -1.1787800000        1.5382010000       -0.0832350000
S                 1.2312310000        0.6764160000       -0.6559850000
O                 1.7013420000       -0.8072620000       -0.6670680000
O                 2.9104260000        0.0742310000       -0.6868330000
O                 1.3785710000        1.2643690000        0.8177610000
F                -0.7789450000       -1.9013820000        0.3275480000
F                -0.6541360000       -0.4131260000        1.8859460000
F                -2.4612640000       -0.6185030000        0.7316130000
H                 2.3188190000        1.4048200000        0.9902920000


