%mem=28GB
%chk=2003846667223680600001_r12_insertion_R_2_5_8
%nprocshared=8
#P M062X/Def2TZVPP ! ASE formatted method and basis
Symm(None)
scf(xqc)
pop(None)
opt(NoFreeze,TS,CalcAll,NoEigentest,MaxCycle=999)

Gaussian input prepared by ASE

0 1
C                -0.5952860000       -1.2673490000        0.2028740000
C                 0.3015410000        0.0037530000       -0.1039140000
F                 0.1221970000        0.2440170000       -1.4342100000
F                -0.3339720000        1.0371230000        0.5053090000
S                 1.8804890000       -0.2592200000        0.3721930000
O                 2.1285290000       -0.1562040000        1.7339770000
O                 2.6438010000       -1.0631790000       -0.4789500000
O                 1.6043530000        1.3635820000       -0.3559980000
F                -1.1370020000       -1.7806480000       -0.8785540000
F                 0.0925600000       -2.2420820000        0.7630620000
F                -1.5853210000       -1.0022470000        1.0288670000
H                 2.3260480000        2.0020420000       -0.4604630000

1 2 F
1 9 F
1 10 F
1 11 F
2 3 F
2 4 F
2 5 F
5 6 F
5 7 F
5 8 F
8 12 F


