%mem=28GB
%chk=2003846667223680600001_r13_insertion_RSR_9_1_2_5_IRC_R_prod
%nprocshared=8
#P M062X/Def2TZVPP ! ASE formatted method and basis
Symm(None)
scf(xqc)
pop(None)
opt(CalcAll,Cartesian)

Gaussian input prepared by ASE

0 1
C                 0.9628580000       -1.9167130000       -0.7263630000
C                 1.5931060000       -0.7720620000       -0.5719500000
F                 1.5567030000       -0.0817970000        0.5563910000
F                 2.3076130000       -0.1867690000       -1.5001190000
S                -1.3598950000        1.4680500000        0.9126250000
O                -2.5444360000        2.1565500000        0.6087060000
O                -0.9497130000        1.1393990000        2.2210210000
O                -0.1959950000        2.1546560000        0.1376370000
F                -1.4049340000        0.1260670000        0.1282460000
F                 0.9933410000       -2.6045430000       -1.8383280000
F                 0.2488720000       -2.4749760000        0.2147760000
H                 0.6559290000        1.8322970000        0.4704800000


