%mem=28GB
%chk=2003846667223680600001_intra_H_migration_5_12_IRC_R_prod
%nprocshared=8
#P M062X/Def2TZVPP ! ASE formatted method and basis
Symm(None)
scf(xqc)
pop(None)
freq
opt(CalcFC)

Gaussian input prepared by ASE

0 1
C                -1.1219010000       -0.9616590000        0.0744870000
C                -0.5004480000        0.4589380000       -0.0215020000
F                -0.8680010000        1.0089800000       -1.1768750000
F                -0.9513620000        1.1966540000        0.9906060000
S                 1.3499700000        0.4107860000        0.0035160000
O                 1.7049290000       -0.2534170000        1.2020430000
O                 1.7973610000       -0.0091300000       -1.2798910000
O                 1.7156160000        1.9399290000       -0.0311880000
F                -0.5370680000       -1.7688580000       -0.7962890000
F                -0.9800930000       -1.4496380000        1.2924280000
F                -2.4146350000       -0.8835360000       -0.2090190000
H                 2.0933310000        2.0816460000       -0.9130960000


