%mem=28GB
%chk=2003846667223680600001_intra_H_migration_suprafacial_6_12_IRC_R
%nprocshared=8
#P M062X/Def2TZVPP ! ASE formatted method and basis
Symm(None)
scf(xqc)
pop(None)
geom(AllCheck,NoKeepConstants)
guess(Read)
irc(RCFC,reverse,MaxPoints=100,StepSize=2)

Gaussian input prepared by ASE

0 1
C                 2.5343690000       -1.7714880000       -1.7300480000
C                 1.9009430000       -0.3863890000       -1.9935940000
F                 2.5622630000        0.1788440000       -3.0139150000
F                 0.6335350000       -0.5856680000       -2.3962080000
S                 0.6233000000        0.4056450000        0.6467610000
O                 1.9541450000        0.3940010000       -0.8998720000
O                -0.4646490000       -0.4217460000        0.2944010000
O                 0.4976080000        1.7758950000        0.9571740000
F                 3.8321800000       -1.6465930000       -1.4886350000
F                 1.9613160000       -2.3062400000       -0.6441250000
F                 2.3596380000       -2.5902670000       -2.7498260000
H                 1.9552630000       -0.1282850000        0.4501690000


