%mem=28GB
%chk=2003846667223680600001_r12_insertion_R_1_2_5_IRC_F
%nprocshared=8
#P M062X/Def2TZVPP ! ASE formatted method and basis
Symm(None)
scf(xqc)
pop(None)
geom(AllCheck,NoKeepConstants)
guess(Read)
irc(RCFC,forward,MaxPoints=100,StepSize=2)

Gaussian input prepared by ASE

0 1
C                -0.2974680000       -1.2831070000        0.2620530000
C                -0.4790190000        0.1030860000        0.1272730000
F                -0.5512150000        0.6532350000       -1.0191840000
F                -0.5311620000        0.8723990000        1.1373080000
S                 2.0012430000       -0.2392260000        0.1624330000
O                 2.4828570000       -0.4412360000        1.4956620000
O                 2.5951750000       -0.9232500000       -0.9579060000
O                 2.1714200000        1.3386020000       -0.1412240000
F                -0.1895250000       -2.0383860000       -0.7494490000
F                -0.1719620000       -1.8290880000        1.3975530000
F                -2.0821720000       -0.7711220000        0.2253500000
H                 2.4997660000        1.4376830000       -1.0456830000


