%mem=28GB
%chk=2003846667223680600001_r12_insertion_R_3_2_1
%nprocshared=8
#P M062X/Def2TZVPP ! ASE formatted method and basis
Symm(None)
scf(xqc)
pop(None)
opt(NoFreeze,TS,CalcAll,NoEigentest,MaxCycle=999)

Gaussian input prepared by ASE

0 1
C                -0.8035110000       -1.4826340000       -0.1074180000
C                 0.3189570000        0.2335400000        0.6881510000
F                -0.4704520000        0.2624230000       -0.7827330000
F                -0.4229860000        0.8044070000        1.3981060000
S                 1.9417650000        0.1742100000        0.4677280000
O                 2.6346530000        0.3397910000        1.7303280000
O                 2.2134990000       -0.9348690000       -0.4196410000
O                 2.3240680000        1.4441930000       -0.4333750000
F                -0.3593460000       -1.8733930000       -1.1620700000
F                -0.4310280000       -2.2605290000        0.9170020000
F                -1.9751200000       -1.1386920000       -0.0086860000
H                 2.4774360000        1.3111510000       -1.3931960000

1 2 F
1 9 F
1 10 F
1 11 F
2 3 F
2 4 F
2 5 F
5 6 F
5 7 F
5 8 F
8 12 F


