%mem=28GB
%chk=2003846667223680600001_r12_insertion_R_5_2_1
%nprocshared=8
#P M062X/Def2TZVPP ! ASE formatted method and basis
Symm(None)
scf(xqc)
pop(None)
opt(NoFreeze,TS,CalcAll,NoEigentest,MaxCycle=999)

Gaussian input prepared by ASE

0 1
C                -0.0690440000       -1.4991720000        0.3027490000
C                 0.0018440000        0.6545880000       -0.1402900000
F                -0.4474220000        0.8639060000       -1.3352580000
F                -0.7201000000        1.3279300000        0.6694300000
S                 1.3547030000       -0.2419840000        0.2532540000
O                 1.6026920000       -0.2884390000        1.6799590000
O                 2.0260780000       -0.9119720000       -0.8434230000
O                 2.0781690000        1.1644910000       -0.0120210000
F                -0.6236270000       -1.7067690000       -0.7680590000
F                 0.4736300000       -2.5123390000        0.6606930000
F                -0.9787200000       -1.2461070000        1.1378770000
H                 2.7497400000        1.2754550000       -0.7107190000

1 2 F
1 9 F
1 10 F
1 11 F
2 3 F
2 4 F
2 5 F
5 6 F
5 7 F
5 8 F
8 12 F


