%mem=28GB
%chk=2003846667223680600001_r12_insertion_R_8_5_6
%nprocshared=8
#P M062X/Def2TZVPP ! ASE formatted method and basis
Symm(None)
scf(xqc)
pop(None)
opt(NoFreeze,TS,CalcAll,NoEigentest,MaxCycle=999)

Gaussian input prepared by ASE

0 1
C                -0.6953880000       -1.4002560000        0.2425380000
C                 0.0035670000       -0.0074730000       -0.0121480000
F                -0.5127810000        0.5091230000       -1.1588710000
F                -0.4018460000        0.8647140000        0.9102910000
S                 1.7438580000       -0.1120590000       -0.0580840000
O                 2.1901840000        0.3189000000        1.6316030000
O                 2.1386640000       -0.8422420000       -1.0401190000
O                 2.6335800000        1.2959480000        0.0635530000
F                -0.7827400000       -2.1244320000       -0.8508300000
F                -0.0303600000       -2.1434930000        1.1227340000
F                -1.9088380000       -1.2691270000        0.7072510000
H                 3.0700390000        1.7899960000       -0.6637230000

1 2 F
1 9 F
1 10 F
1 11 F
2 3 F
2 4 F
2 5 F
5 6 F
5 7 F
5 8 F
8 12 F


