%mem=28GB
%chk=2003846667223680600001_r12_insertion_R_6_5_2
%nprocshared=8
#P M062X/Def2TZVPP ! ASE formatted method and basis
Symm(None)
scf(xqc)
pop(None)
opt(NoFreeze,TS,CalcAll,NoEigentest,MaxCycle=999)

Gaussian input prepared by ASE

0 1
C                -0.5669530000       -1.3460520000        0.2796300000
C                 0.1442750000       -0.0222040000       -0.1023930000
F                -0.1649620000        0.2193740000       -1.4126100000
F                -0.4559600000        1.0308900000        0.4572230000
S                 1.9217330000        0.0149580000        0.1790970000
O                 1.0230000000       -0.1400610000        1.5780700000
O                 2.7139680000       -0.7604890000       -0.5416250000
O                 2.3922770000        1.4285020000        0.0153900000
F                -1.4513940000       -1.7233440000       -0.6292480000
F                 0.2644330000       -2.3644880000        0.3936860000
F                -1.2335020000       -1.2782220000        1.4176650000
H                 2.8610260000        1.8207290000       -0.7406920000

1 2 F
1 9 F
1 10 F
1 11 F
2 3 F
2 4 F
2 5 F
5 6 F
5 7 F
5 8 F
8 12 F


