%mem=28GB
%chk=2003846667223680600001_r13_insertion_RSR_9_1_2_5_IRC_R
%nprocshared=8
#P M062X/Def2TZVPP ! ASE formatted method and basis
Symm(None)
scf(xqc)
pop(None)
geom(AllCheck,NoKeepConstants)
guess(Read)
irc(RCFC,reverse,MaxPoints=100,StepSize=2)

Gaussian input prepared by ASE

0 1
C                 1.7465840000       -0.0051890000       -0.1392970000
C                 2.3491720000        1.2591720000       -0.0188120000
F                 3.2781200000        1.3590690000        0.9203810000
F                 2.6964920000        1.8370040000       -1.1506520000
S                 0.5831500000        2.4568660000        0.7247340000
O                -0.1776140000        2.8694150000       -0.4001120000
O                 0.3208800000        2.5082330000        2.1281770000
O                 1.8055470000        3.5459380000        0.6391990000
F                -0.0557820000        0.7839190000        0.6427350000
F                 1.1728450000       -0.3719300000       -1.2059080000
F                 1.7896960000       -0.8676600000        0.7872700000
H                 2.1452960000        3.6622860000        1.5361310000


