%mem=28GB
%chk=2003846667223680600001_r12_insertion_R_1_2_3_IRC_R_prod
%nprocshared=8
#P M062X/Def2TZVPP ! ASE formatted method and basis
Symm(None)
scf(xqc)
pop(None)
freq
opt(CalcFC)

Gaussian input prepared by ASE

0 1
C                -1.2604200000       -0.8432750000       -0.1171560000
C                -0.3508440000        0.3134110000        0.3308290000
F                -0.6595800000        1.3180650000       -1.4666820000
F                -0.9045550000        1.0888930000        1.1482710000
S                 1.5476510000        0.3101600000        0.2220350000
O                 1.8929120000        0.5193440000        1.5855600000
O                 1.7833150000       -0.9629140000       -0.3637510000
O                 1.6517650000        1.4635960000       -0.6588050000
F                -0.8629770000       -1.3643150000       -1.2453690000
F                -1.1493570000       -1.7303400000        0.8683250000
F                -2.5115670000       -0.4401110000       -0.2112680000
H                 0.2949310000        1.5403700000       -1.4272400000


