%mem=28GB
%chk=2003846667223680600001_r12_insertion_R_3_2_5_IRC_F_prod
%nprocshared=8
#P M062X/Def2TZVPP ! ASE formatted method and basis
Symm(None)
scf(xqc)
pop(None)
freq
opt(CalcFC)

Gaussian input prepared by ASE

0 1
C                -1.2968180000       -1.0198920000       -0.0379290000
C                -0.3780870000        0.2444920000        0.2596740000
F                -0.7134510000        1.1124000000       -0.7098530000
F                -0.8017730000        0.6749890000        1.4481080000
S                 1.5191980000        0.5143730000        0.0172680000
O                 1.8516350000        1.2841180000        1.1667330000
O                 2.0432320000       -0.7161890000       -0.4411750000
O                 1.7718230000        1.4864700000       -1.2054290000
F                -0.8685620000       -1.6563810000       -1.1059660000
F                -1.4906760000       -1.8934810000        0.9392070000
F                -2.4858600000       -0.4706510000       -0.2883500000
H                 1.7112310000        2.4063350000       -0.9098140000


