%mem=28GB
%chk=2003846667223680600001_r12_insertion_R_12_8_5_IRC_F_prod
%nprocshared=8
#P M062X/Def2TZVPP ! ASE formatted method and basis
Symm(None)
scf(xqc)
pop(None)
freq
opt(CalcFC)

Gaussian input prepared by ASE

0 1
C                -1.1075350000       -0.9810620000        0.0901760000
C                -0.5112060000        0.4383690000       -0.0397800000
F                -0.8802000000        0.9646300000       -1.2047970000
F                -0.9738290000        1.1931030000        0.9563250000
S                 1.3346980000        0.5399580000        0.0684670000
O                 1.7090100000       -0.2589620000        1.1752310000
O                 1.8351830000        0.0038950000       -1.3213520000
O                 1.6518950000        1.9229300000       -0.0391880000
F                -0.4984160000       -1.7944570000       -0.7623020000
F                -0.9612330000       -1.4404470000        1.3175130000
F                -2.3992560000       -0.9348520000       -0.2030290000
H                 2.1605700000        0.7904280000       -1.7861800000


