%mem=28GB
%chk=2003846667223680600001_R_Addition_MultipleBond_5_2_3_IRC_R
%nprocshared=8
#P mp2/6-31G ! ASE formatted method and basis
Symm(None)
scf(xqc)
pop(None)
guess(Read,Mix)
geom(AllCheck,NoKeepConstants)
irc(RCFC,reverse,MaxPoints=100,StepSize=2)

Gaussian input prepared by ASE

0 1
C                -1.1776090000       -0.9376050000       -0.2087300000
C                -0.6015780000        0.4397970000        0.1438220000
F                -1.0407900000        1.3946420000       -0.7545410000
F                -0.9379790000        0.7902910000        1.4452280000
S                 1.4409250000        0.4119330000        0.1758230000
O                 1.8904330000        1.0043930000        1.5814740000
O                 2.0323730000       -0.9736810000       -0.3536960000
O                 1.5638040000        1.6555370000       -1.1439220000
F                -0.8097080000       -1.2869710000       -1.5007430000
F                -0.6975370000       -1.8861840000        0.6871080000
F                -2.5681880000       -0.9034370000       -0.1290820000
H                 2.5234710000        1.7566920000       -1.3847790000


