%mem=28GB
%chk=2003846667223680600001_r12_insertion_R_6_5_2_IRC_R
%nprocshared=8
#P M062X/Def2TZVPP ! ASE formatted method and basis
Symm(None)
scf(xqc)
pop(None)
geom(AllCheck,NoKeepConstants)
guess(Read)
irc(RCFC,reverse,MaxPoints=100,StepSize=2)

Gaussian input prepared by ASE

0 1
C                -1.1615810000       -0.9442360000        0.0230050000
C                -0.4461200000        0.4343400000       -0.2229390000
F                -0.5433070000        0.7691280000       -1.5130950000
F                -1.0251450000        1.3794650000        0.5104470000
S                 1.3481250000        0.4002420000        0.1944490000
O                 1.4556910000        0.2767470000        1.5967230000
O                 1.9787720000       -0.4705920000       -0.7321230000
O                 1.7002730000        1.8872520000       -0.1768650000
F                -1.6881220000       -1.3851050000       -1.1064100000
F                -0.3012160000       -1.8473010000        0.4712280000
F                -2.1234010000       -0.7963540000        0.9163680000
H                 1.9787140000        1.9412620000       -1.1025480000


