%mem=28GB
%chk=2003846667223680600001_intra_H_migration_6_12_IRC_R_prod
%nprocshared=8
#P M062X/Def2TZVPP ! ASE formatted method and basis
Symm(None)
scf(xqc)
pop(None)
freq
opt(CalcFC)

Gaussian input prepared by ASE

0 1
C                 0.9838290000       -0.8048520000       -0.7573960000
C                 0.1711590000        0.4821030000       -0.4465890000
F                 1.0180170000        1.4897950000       -0.2483170000
F                -0.6138100000        0.7531470000       -1.4872720000
S                -0.9231990000        0.2733800000        1.0318530000
O                -2.0502310000       -0.5012120000        0.6403040000
O                -0.0680900000       -0.0897200000        2.0997230000
O                -1.5664550000        1.7023050000        1.1647320000
F                 1.9337450000       -0.9829440000        0.1413030000
F                 0.1787070000       -1.8553460000       -0.7641820000
F                 1.5420330000       -0.6802160000       -1.9534390000
H                -2.4947360000        1.5775120000        0.9132910000


