%mem=28GB
%chk=2003846667223680600001_r12_insertion_R_3_2_4
%nprocshared=8
#P M062X/Def2TZVPP ! ASE formatted method and basis
Symm(None)
scf(xqc)
pop(None)
opt(NoFreeze,TS,CalcAll,NoEigentest,MaxCycle=999,Cartesian)

Gaussian input prepared by ASE

0 1
C                -0.5008810000       -1.5000420000        0.0292630000
C                 0.2988160000       -0.2292090000       -0.2909600000
F                -0.3125220000        0.6752260000       -0.8580420000
F                -1.3237080000        1.4580570000        0.5982250000
S                 1.8724460000        0.1411290000        0.5009810000
O                 1.5628580000        0.6725710000        1.7644570000
O                 2.6651440000       -1.0158160000        0.2983070000
O                 2.3710110000        1.2999310000       -0.4175090000
F                -1.6434240000       -1.4677850000       -0.6184100000
F                 0.1926560000       -2.5651500000       -0.3448370000
F                -0.7102910000       -1.5546040000        1.3295340000
H                 2.9758350000        0.9652780000       -1.0968070000

1 2 F
1 9 F
1 10 F
1 11 F
2 3 F
2 4 F
2 5 F
5 6 F
5 7 F
5 8 F
8 12 F


