%mem=28GB
%chk=2003846667223680600001_intra_H_migration_5_12
%nprocshared=8
#P M062X/Def2TZVPP ! ASE formatted method and basis
Symm(None)
scf(xqc)
pop(None)
opt(NoFreeze,TS,CalcAll,NoEigentest,MaxCycle=999)

Gaussian input prepared by ASE

0 1
C                -0.5684730000       -1.2893460000        0.1372470000
C                 0.0770000000        0.1147890000        0.0971620000
F                -0.2050950000        0.7037190000       -1.0716460000
F                -0.4957920000        0.9109980000        0.9953970000
S                 1.9065180000        0.1120060000        0.3219330000
O                 2.1715770000       -0.1820620000        1.6762170000
O                 2.4018160000       -0.6725850000       -0.7518560000
O                 2.3074240000        1.5943360000       -0.0130830000
F                -0.4950280000       -1.9165550000       -1.0230590000
F                -0.0082680000       -2.0955910000        1.0242170000
F                -1.8557970000       -1.2488270000        0.4501320000
H                 2.2120570000        0.8487080000       -0.9484670000



