%mem=28GB
%chk=2003846667223680600001_r12_insertion_R_9_1_10_IRC_F_prod
%nprocshared=8
#P M062X/Def2TZVPP ! ASE formatted method and basis
Symm(None)
scf(xqc)
pop(None)
freq
opt(CalcFC)

Gaussian input prepared by ASE

0 1
C                -0.9329260000       -0.7705920000       -0.3508900000
C                -0.6590890000        0.6045850000        0.3668560000
F                -1.1946130000        1.5895340000       -0.3173880000
F                -0.9065250000        0.7542160000        1.6433940000
S                 1.1198010000        0.2174760000       -0.0397320000
O                 2.4932250000        0.3900870000        0.3441380000
O                 0.3350260000       -0.9073670000       -0.9649970000
O                 1.1332930000        1.3082210000       -1.2556690000
F                -1.2806180000       -1.7302710000        0.4855730000
F                 0.9043910000       -0.9048070000        1.1972230000
F                -1.8442970000       -0.7245420000       -1.3031640000
H                 2.0254010000        1.6711830000       -1.3052380000


