%mem=28GB
%chk=2003846667223680600001_r12_insertion_R_8_5_6_IRC_F
%nprocshared=8
#P M062X/Def2TZVPP ! ASE formatted method and basis
Symm(None)
scf(xqc)
pop(None)
geom(AllCheck,NoKeepConstants)
guess(Read)
irc(RCFC,forward,MaxPoints=100,StepSize=2)

Gaussian input prepared by ASE

0 1
C                -0.4795360000       -1.4251800000        0.2485900000
C                -0.3697690000        0.1312070000        0.0448680000
F                -0.8824930000        0.4610060000       -1.1100480000
F                -0.9448290000        0.7914380000        1.0046210000
S                 1.6772800000        0.6220550000        0.0591100000
O                 1.5627390000        0.3922080000        1.4866690000
O                 1.7274780000       -0.3814540000       -1.0073980000
O                 3.2521480000        1.0003470000        0.0720280000
F                -0.3945320000       -2.0359200000       -0.9117490000
F                 0.3949860000       -1.9186560000        1.0858310000
F                -1.7049350000       -1.6167600000        0.7377180000
H                 3.6094010000        0.8593070000       -0.8160430000


