%mem=28GB
%chk=2003846667223680600001_r12_insertion_R_8_5_6_IRC_R
%nprocshared=8
#P M062X/Def2TZVPP ! ASE formatted method and basis
Symm(None)
scf(xqc)
pop(None)
geom(AllCheck,NoKeepConstants)
guess(Read)
irc(RCFC,reverse,MaxPoints=100,StepSize=2)

Gaussian input prepared by ASE

0 1
C                -0.9026520000       -1.1218920000        0.1049170000
C                -0.7921740000        0.4327360000       -0.0981680000
F                -1.3054220000        0.7643280000       -1.2535630000
F                -1.3677360000        1.0947310000        0.8608850000
S                 1.2531970000        0.9267670000       -0.0850970000
O                 1.1398390000        0.6955190000        1.3430960000
O                 1.3047390000       -0.0783470000       -1.1510260000
O                 2.8287350000        1.3019540000       -0.0710830000
F                -0.8177090000       -1.7324610000       -1.0554550000
F                -0.0281770000       -1.6152980000        0.9421430000
F                -2.1280590000       -1.3131140000        0.5939960000
H                 3.1854160000        1.1638540000       -0.9598840000


