%mem=28GB
%chk=2003846667223680600001_r12_insertion_R_5_2_1_IRC_F
%nprocshared=8
#P M062X/Def2TZVPP ! ASE formatted method and basis
Symm(None)
scf(xqc)
pop(None)
geom(AllCheck,NoKeepConstants)
guess(Read)
irc(RCFC,forward,MaxPoints=100,StepSize=2)

Gaussian input prepared by ASE

0 1
C                -0.0801840000       -1.5755820000        0.3252410000
C                -0.0312120000        0.7977830000       -0.1747530000
F                -0.4925870000        0.8715650000       -1.3431660000
F                -0.7483510000        1.3743170000        0.6795500000
S                 1.4163910000       -0.1918820000        0.2446280000
O                 1.6246530000       -0.2887880000        1.6531760000
O                 2.0151340000       -0.8882680000       -0.8565210000
O                 2.1506920000        1.3197740000       -0.0118460000
F                -0.6751380000       -1.7940100000       -0.8566120000
F                 0.4867450000       -2.6992020000        0.7174420000
F                -1.0515880000       -1.2681010000        1.2015150000
H                 2.8333880000        1.2219820000       -0.6844610000


