%mem=28GB
%chk=2003846667223680600001_r12_insertion_R_9_1_2_IRC_F_prod
%nprocshared=8
#P M062X/Def2TZVPP ! ASE formatted method and basis
Symm(None)
scf(xqc)
pop(None)
freq
opt(CalcFC)

Gaussian input prepared by ASE

0 1
C                -2.6790070000       -0.5333550000        0.4995170000
C                -0.0389010000        0.2976030000        0.0486420000
F                -0.7433580000        0.9043170000       -0.8936110000
F                -0.3135780000        0.8317220000        1.2202270000
S                 1.7165410000        0.3551680000       -0.3353850000
O                 2.3716760000       -0.1793070000        0.7938200000
O                 1.8309740000       -0.1703550000       -1.6476890000
O                 1.9344900000        1.9088530000       -0.3570870000
F                -0.3020200000       -1.0045250000        0.0607750000
F                -2.3612280000       -1.3266420000        1.4703300000
F                -2.7166650000       -1.2855720000       -0.5531930000
H                 1.8457940000        2.2472160000       -1.2598730000


