%mem=28GB
%chk=2003846667223680600001_r12_insertion_R_5_2_1_IRC_F_prod
%nprocshared=8
#P M062X/Def2TZVPP ! ASE formatted method and basis
Symm(None)
scf(xqc)
pop(None)
freq
opt(CalcFC)

Gaussian input prepared by ASE

0 1
C                -0.4910760000       -1.2626100000        0.2064080000
C                -0.2534670000        1.3312870000       -0.3333810000
F                -0.8488300000        1.3584420000       -1.5055690000
F                -1.0787960000        1.8776540000        0.5200460000
S                 0.8169270000       -0.0179580000        0.1366400000
O                 1.2077970000        0.1126280000        1.4975000000
O                 1.5899430000       -0.4546870000       -0.9843580000
O                 1.2747950000        1.8888270000       -0.2327440000
F                -1.0659260000       -1.3849950000       -0.9885720000
F                 0.0079420000       -2.4123130000        0.5944170000
F                -1.4358680000       -0.8548990000        1.0533080000
H                 1.6631660000        1.8990820000       -1.1211110000


