%mem=28GB
%chk=2003846667223680600001_intra_H_migration_6_12_IRC_F_prod
%nprocshared=8
#P M062X/Def2TZVPP ! ASE formatted method and basis
Symm(None)
scf(xqc)
pop(None)
freq
opt(CalcFC)

Gaussian input prepared by ASE

0 1
C                 0.9693280000       -0.8038030000       -0.7477560000
C                 0.1581840000        0.4798560000       -0.4461060000
F                 1.0119500000        1.4859790000       -0.2690190000
F                -0.6297930000        0.7420540000       -1.4938240000
S                -0.8991240000        0.4222560000        1.0639890000
O                -2.0223060000       -0.5813460000        0.6194530000
O                -0.1392060000       -0.2019520000        2.0775010000
O                -1.4645830000        1.7179290000        1.1847480000
F                 1.9186150000       -0.9793160000        0.1506220000
F                 0.1707980000       -1.8611930000       -0.7610210000
F                 1.5290340000       -0.6752990000       -1.9438400000
H                -2.7677670000       -0.0968630000        0.2358880000


