%mem=28GB
%chk=2003846667223680600001_r12_insertion_R_3_2_5_IRC_R_prod
%nprocshared=8
#P M062X/Def2TZVPP ! ASE formatted method and basis
Symm(None)
scf(xqc)
pop(None)
freq
opt(CalcFC)

Gaussian input prepared by ASE

0 1
C                -1.5248280000       -1.1505020000        0.1590470000
C                -0.5848510000       -0.4139320000        1.1510450000
F                 0.1214880000        1.0009520000       -0.7264350000
F                -1.2723810000        0.5574710000        1.6345650000
S                 1.6227070000        0.8030470000       -0.3051440000
O                 1.7514310000        1.4201800000        0.9558820000
O                 1.9470000000       -0.5293230000       -0.5922090000
O                 2.2645460000        1.7019280000       -1.4023260000
F                -0.8709010000       -1.5634930000       -0.9138230000
F                -1.9269690000       -2.2138420000        0.8615440000
F                -2.5925050000       -0.4662110000       -0.2371470000
H                 2.3131630000        2.6192400000       -1.0974740000


