%mem=28GB
%chk=2003846667223680600001_r12_insertion_R_2_1_9_IRC_F
%nprocshared=8
#P M062X/Def2TZVPP ! ASE formatted method and basis
Symm(None)
scf(xqc)
pop(None)
geom(AllCheck,NoKeepConstants)
guess(Read)
irc(RCFC,forward,MaxPoints=100,StepSize=2)

Gaussian input prepared by ASE

0 1
C                -0.6395830000       -1.0668890000        0.5823300000
C                -0.0941440000        0.0414750000       -0.3649080000
F                -0.5012690000       -0.1236260000       -1.6035130000
F                -0.5933490000        1.1885400000        0.0915150000
S                 1.6959010000       -0.2273280000        0.0282770000
O                 1.4824760000       -0.8369280000        1.3360710000
O                 2.7675350000       -0.3624880000       -0.9013060000
O                 1.9138390000        1.3139770000        0.4876580000
F                 0.9677760000       -1.8608060000       -0.6708050000
F                -0.9747500000       -0.7483540000        1.7533100000
F                -1.2022520000       -2.1164870000        0.2059420000
H                 2.6257510000        1.6785030000       -0.0503740000


