%mem=28GB
%chk=2003846667223680600001_r13_insertion_RSR_9_1_2_5_IRC_F_prod
%nprocshared=8
#P M062X/Def2TZVPP ! ASE formatted method and basis
Symm(None)
scf(xqc)
pop(None)
freq
opt(CalcFC)

Gaussian input prepared by ASE

0 1
C                -0.0293110000       -1.4010910000       -0.2855960000
C                 0.7635340000       -0.0670000000       -0.2143560000
F                 1.8045050000       -0.1232150000        0.6173210000
F                 1.2412610000        0.3273360000       -1.3912200000
S                -0.5633060000        1.1630290000        0.3890040000
O                -1.4872020000        1.3565940000       -0.6655280000
O                -0.9841170000        0.9622310000        1.7340720000
O                 0.4787250000        2.3369140000        0.3763440000
F                -1.2413170000       -1.1068550000        0.1904390000
F                -0.1620500000       -1.8386250000       -1.5192530000
F                 0.4801230000       -2.3437750000        0.4794200000
H                 0.7402550000        2.5540960000        1.2813270000


