%mem=28GB
%chk=2003846667223680600001_r12_insertion_R_2_1_9_IRC_F_prod
%nprocshared=8
#P M062X/Def2TZVPP ! ASE formatted method and basis
Symm(None)
scf(xqc)
pop(None)
freq
opt(CalcFC)

Gaussian input prepared by ASE

0 1
C                -0.8731250000       -0.5450310000        0.7265150000
C                -0.7007210000        0.5054130000       -0.4346540000
F                -1.1658600000        0.2596810000       -1.6330950000
F                -1.0866290000        1.6951160000       -0.0336830000
S                 1.1139020000        0.1321300000       -0.2119020000
O                 0.4793410000       -0.5769820000        1.1415580000
O                 2.4033410000        0.0677020000       -0.8416600000
O                 1.3622700000        1.5480590000        0.5639370000
F                 0.6623800000       -1.3040720000       -0.9658150000
F                -1.6031040000       -0.1282800000        1.7430020000
F                -1.3808890000       -1.6919000000        0.3161510000
H                 2.2577470000        1.8373200000        0.3530720000


