%mem=28GB
%chk=2003846667223680600001_Intra_Diels_alder_R_6_7_IRC_R_prod
%nprocshared=8
#P M062X/Def2TZVPP ! ASE formatted method and basis
Symm(None)
scf(xqc)
pop(None)
freq
opt(CalcFC)

Gaussian input prepared by ASE

0 1
C                -1.1872380000       -0.8826360000        0.0236640000
C                -0.4460220000        0.4646780000       -0.1232120000
F                -0.6848490000        0.9553460000       -1.3382960000
F                -0.9113350000        1.3238800000        0.7894220000
S                 1.3812040000        0.3207270000        0.1180770000
O                 1.8493200000       -0.7121780000       -0.7233210000
O                 1.6214180000        0.3594960000        1.5143000000
O                 1.8115780000        1.6793010000       -0.5462600000
F                -0.9171630000       -1.6683420000       -1.0017170000
F                -0.8231870000       -1.4809160000        1.1476350000
F                -2.4916800000       -0.6508740000        0.0584930000
H                 1.6670520000        2.4209690000        0.0596740000


