%mem=28GB
%chk=2003846667223680600001_r12_insertion_R_8_5_6_IRC_F_prod
%nprocshared=8
#P M062X/Def2TZVPP ! ASE formatted method and basis
Symm(None)
scf(xqc)
pop(None)
freq
opt(CalcFC)

Gaussian input prepared by ASE

0 1
C                -0.9138390000       -1.0623020000        0.0855770000
C                -0.6938390000        0.5116090000       -0.1224440000
F                -1.2415950000        0.8400250000       -1.2829150000
F                -1.3112040000        1.1608760000        0.8472020000
S                 1.2464430000        0.6570090000       -0.0006330000
O                 1.3014420000        0.5370530000        1.4132120000
O                 1.4930860000       -0.2865860000       -1.0505120000
O                 2.3737530000        1.7525010000       -0.2581270000
F                -0.8348840000       -1.6906330000       -1.0710210000
F                -0.0550500000       -1.6030690000        0.9279510000
F                -2.1341430000       -1.2384450000        0.5767440000
H                 2.7050460000        1.6420790000       -1.1622620000


