%mem=28GB
%chk=2003846667223680600001_r12_insertion_R_3_2_1_IRC_F_prod
%nprocshared=8
#P M062X/Def2TZVPP ! ASE formatted method and basis
Symm(None)
scf(xqc)
pop(None)
freq
opt(CalcFC)

Gaussian input prepared by ASE

0 1
C                -1.3232110000       -1.0447260000       -0.1553620000
C                -0.4074810000        0.3387100000        0.0137740000
F                -0.4705640000        0.7339660000       -1.2615450000
F                -0.9193020000        1.3041700000        0.7881900000
S                 1.4892320000        0.5031260000        0.3653070000
O                 1.8489650000        0.8844400000        1.6793360000
O                 2.0489360000       -0.6126050000       -0.3082910000
O                 1.6900350000        1.8081490000       -0.4953770000
F                -1.6331290000       -1.2914900000       -1.4296050000
F                -0.6980540000       -2.1262260000        0.2657390000
F                -2.4853590000       -0.8570520000        0.4510280000
H                 1.6746310000        1.5969810000       -1.4397810000


