%mem=28GB
%chk=2003846667223680600001_r13_insertion_ROR_3_2_5_8_IRC_R_prod
%nprocshared=8
#P M062X/Def2TZVPP ! ASE formatted method and basis
Symm(None)
scf(xqc)
pop(None)
opt(CalcAll,Cartesian)

Gaussian input prepared by ASE

0 1
C                -0.0910800000       -1.2877940000       -0.8919340000
C                -0.0743200000       -0.6040700000        0.4945910000
F                -1.2439330000       -0.8401270000        1.1024320000
F                 0.9116160000       -1.1288530000        1.2187020000
S                 0.1934280000        1.2211970000        0.4602850000
O                 0.3327760000        1.6105600000        1.8171110000
O                 1.1535070000        1.4927720000       -0.5390060000
O                -1.1940100000        1.7132630000       -0.0796720000
F                -0.9507380000       -0.6783950000       -1.6957510000
F                 1.1095600000       -1.2717160000       -1.4360410000
F                -0.4754890000       -2.5477600000       -0.7319250000
H                -1.8193190000        1.8569370000        0.6469640000


