%mem=28GB
%chk=2003846667223680600001_r12_insertion_R_6_5_8_IRC_R_prod
%nprocshared=8
#P M062X/Def2TZVPP ! ASE formatted method and basis
Symm(None)
scf(xqc)
pop(None)
freq
opt(CalcFC)

Gaussian input prepared by ASE

0 1
C                -0.9010230000       -1.1243590000        0.0927960000
C                -0.7940400000        0.4366170000       -0.0562140000
F                -1.3440290000        0.8112310000       -1.1811040000
F                -1.3366110000        1.0630910000        0.9450520000
S                 1.2516300000        0.9284790000       -0.0912140000
O                 1.1851630000        0.6433870000        1.3301560000
O                 1.2654650000       -0.0354540000       -1.1957270000
O                 2.8275050000        1.3014410000       -0.1158270000
F                -0.8551670000       -1.6916480000       -1.0914810000
F                -0.0007060000       -1.6491960000        0.8821650000
F                -2.1101910000       -1.3325850000        0.6142460000
H                 3.1539440000        1.1964180000       -1.0206400000


