%mem=28GB
%chk=2003846667223680600001_r12_insertion_R_2_5_8_IRC_R_prod
%nprocshared=8
#P M062X/Def2TZVPP ! ASE formatted method and basis
Symm(None)
scf(xqc)
pop(None)
freq
opt(CalcFC)

Gaussian input prepared by ASE

0 1
C                -1.1428560000       -0.9671110000        0.0126800000
C                -0.4435220000        0.4141840000       -0.2629440000
F                -0.4865350000        0.6885990000       -1.5701720000
F                -1.0745580000        1.3786210000        0.3989360000
S                 1.3293950000        0.4376510000        0.2379640000
O                 1.3734280000        0.3818600000        1.6479640000
O                 2.0195480000       -0.4619630000       -0.6157780000
O                 1.6701360000        1.9129140000       -0.1871170000
F                -1.6013880000       -1.4725870000       -1.1193820000
F                -0.2887940000       -1.8283480000        0.5470470000
F                -2.1523030000       -0.7989580000        0.8480580000
H                 1.9923860000        1.9293040000       -1.0999250000


