%mem=28GB
%chk=2003846667223680600001_r12_insertion_R_6_5_7_IRC_F_prod
%nprocshared=8
#P M062X/Def2TZVPP ! ASE formatted method and basis
Symm(None)
scf(xqc)
pop(None)
freq
opt(CalcFC)

Gaussian input prepared by ASE

0 1
C                -1.1035740000       -0.6763110000        0.6398490000
C                -0.5810430000        0.3803140000       -0.4523130000
F                -1.0407670000       -0.0281350000       -1.6224230000
F                -1.1155180000        1.5483270000       -0.1397830000
S                 1.4482140000        0.3636400000       -0.4560450000
O                 1.3849020000       -1.0541470000       -0.3378950000
O                 2.6174850000        0.8430130000       -1.1426580000
O                 1.4255130000        1.2292900000        0.8728710000
F                -0.8531020000       -1.9294220000        0.3361360000
F                -0.6257550000       -0.4019650000        1.8409300000
F                -2.4313590000       -0.5495110000        0.6866530000
H                 2.3296860000        1.4818990000        1.1138210000


