%mem=28GB
%chk=2003846667223680600001_r13_insertion_ROR_12_8_5_6
%nprocshared=8
#P M062X/Def2TZVPP ! ASE formatted method and basis
Symm(None)
scf(xqc)
pop(None)
opt(NoFreeze,TS,CalcAll,NoEigentest,MaxCycle=999)

Gaussian input prepared by ASE

0 1
C                 4.2752520000        1.7607760000        1.2385770000
C                 3.1738650000        0.6739940000        1.0898580000
F                 3.7700900000       -0.5277640000        0.9242360000
F                 2.5305150000        0.5286570000        2.2586080000
S                 2.0221030000        0.9671810000       -0.2157070000
O                 0.6097770000        2.0910880000        0.6457840000
O                 2.6215240000        1.2745160000       -1.3320100000
O                 0.8950280000        0.0640250000       -0.0872090000
F                 5.2963620000        1.5580430000        0.4368270000
F                 3.8340470000        2.9795880000        0.9791100000
F                 4.7703340000        1.8074270000        2.4672520000
H                 0.0924130000        0.9088060000        0.4891210000

1 2 F
1 9 F
1 10 F
1 11 F
2 3 F
2 4 F
2 5 F
5 6 F
5 7 F
5 8 F
8 12 F


