%mem=28GB
%chk=2003846667223680600001_r12_insertion_R_9_1_2
%nprocshared=8
#P M062X/Def2TZVPP ! ASE formatted method and basis
Symm(None)
scf(xqc)
pop(None)
opt(NoFreeze,TS,CalcAll,NoEigentest,MaxCycle=999)

Gaussian input prepared by ASE

0 1
C                -1.0036540000       -1.3085270000        0.7938780000
C                 0.1561060000        0.2963810000       -0.1636080000
F                -0.4786920000        0.4322000000       -1.2263510000
F                -0.2765940000        1.2241220000        0.6562680000
S                 1.8013850000       -0.2024470000       -0.0730720000
O                 2.0340140000       -0.8938370000        1.1452420000
O                 2.3086920000       -0.5431110000       -1.3742850000
O                 2.4582670000        1.2424380000        0.1348940000
F                 0.0788450000       -1.5814030000       -0.4476290000
F                -0.6156290000       -1.9125100000        1.6748970000
F                -2.0276320000       -1.5072360000        0.3285790000
H                 3.0128280000        1.6335170000       -0.5546130000

1 2 F
1 9 F
1 10 F
1 11 F
2 3 F
2 4 F
2 5 F
5 6 F
5 7 F
5 8 F
8 12 F


