%mem=28GB
%chk=2003846667223680600001_r12_insertion_R_1_2_5_IRC_F_prod
%nprocshared=8
#P M062X/Def2TZVPP ! ASE formatted method and basis
Symm(None)
scf(xqc)
pop(None)
freq
opt(CalcFC)

Gaussian input prepared by ASE

0 1
C                -0.3485320000       -0.7194010000        0.0703210000
C                -1.3627460000        0.4034240000       -0.0290980000
F                -1.1858420000        1.0314470000       -1.1886210000
F                -1.1650110000        1.2512930000        0.9663290000
S                 1.4702480000        0.0341130000        0.0063070000
O                 1.9352530000       -0.0753210000        1.3362640000
O                 2.0695280000       -0.5687520000       -1.1325720000
O                 1.4333970000        1.5893100000       -0.2812910000
F                -0.5640470000       -1.5755560000       -0.9242210000
F                -0.5471980000       -1.3681420000        1.2130450000
F                -2.5893390000       -0.0850850000        0.0276860000
H                 1.5010950000        1.7420260000       -1.2354610000


