%mem=28GB
%chk=2003846667223680600001_R_Addition_MultipleBond_5_8_12_IRC_F_prod
%nprocshared=8
#P mp2/6-31G ! ASE formatted method and basis
Symm(None)
scf(xqc)
pop(None)
guess(Mix,Always)
freq
opt(CalcFC)

Gaussian input prepared by ASE

0 1
C                -1.2155040000       -0.9767800000        0.1167160000
C                -0.6107720000        0.4207780000       -0.0434210000
F                -0.8925310000        0.9478280000       -1.2938090000
F                -1.0446380000        1.2769350000        0.9645610000
S                 1.4022510000        0.5007960000        0.0958770000
O                 1.8558370000       -0.4015600000        1.3252120000
O                 2.0333070000        0.0708720000       -1.5336220000
O                 1.7930160000        2.0574960000       -0.0900230000
F                -0.5112760000       -1.8590770000       -0.7005250000
F                -1.1162460000       -1.3957580000        1.4340060000
F                -2.5531450000       -0.9664650000       -0.2655670000
H                 2.4070600000        0.9638420000       -1.7919190000


