%mem=28GB
%chk=2003846667223680600001_r12_insertion_R_1_2_5_IRC_R_prod
%nprocshared=8
#P M062X/Def2TZVPP ! ASE formatted method and basis
Symm(None)
scf(xqc)
pop(None)
freq
opt(CalcFC)

Gaussian input prepared by ASE

0 1
C                -1.1840650000       -0.8610490000        0.0928910000
C                -0.4976160000        0.4908390000       -0.0443650000
F                -0.9165790000        1.0484490000       -1.1844920000
F                -0.9054900000        1.2664380000        0.9586990000
S                 1.4121920000        0.2820540000       -0.0181140000
O                 1.8092820000       -0.0155220000        1.3050090000
O                 1.8746140000       -0.4981720000       -1.1130170000
O                 1.7214560000        1.7950960000       -0.3132670000
F                -0.8358290000       -1.6367470000       -0.9200230000
F                -0.8171660000       -1.4292350000        1.2286430000
F                -2.4953960000       -0.6695670000        0.0847910000
H                 1.9850220000        1.9041690000       -1.2381390000


