%mem=28GB
%chk=2003846667223680600001_r12_insertion_R_9_1_2_IRC_R_prod
%nprocshared=8
#P M062X/Def2TZVPP ! ASE formatted method and basis
Symm(None)
scf(xqc)
pop(None)
freq
opt(CalcFC)

Gaussian input prepared by ASE

0 1
C                -1.3917720000       -0.8479630000        0.2590140000
C                -0.4425990000        0.4529700000        0.1161220000
F                -0.8655690000        1.2129190000       -0.8966480000
F                -0.4214800000        1.1000390000        1.2749440000
S                 1.4780910000        0.2767190000       -0.2949300000
O                 2.1747540000       -0.2329850000        0.8245720000
O                 1.6568100000       -0.2229890000       -1.6135570000
O                 1.7743890000        1.8300090000       -0.3248600000
F                -0.4780810000       -1.7906660000        0.0925730000
F                -2.0059690000       -1.0183770000        1.4276920000
F                -2.3656980000       -0.9917470000       -0.6363600000
H                 1.6644340000        2.1645250000       -1.2264640000


