%mem=28GB
%chk=2003846667223680600001_r12_insertion_R_8_5_2_IRC_F_prod
%nprocshared=8
#P M062X/Def2TZVPP ! ASE formatted method and basis
Symm(None)
scf(xqc)
pop(None)
freq
opt(CalcFC)

Gaussian input prepared by ASE

0 1
C                -1.1409080000       -0.9694420000        0.0101500000
C                -0.4425990000        0.4118100000       -0.2680570000
F                -0.4776570000        0.6795390000       -1.5768570000
F                -1.0800040000        1.3782300000        0.3848310000
S                 1.3270390000        0.4414880000        0.2439930000
O                 1.3618330000        0.3868630000        1.6543290000
O                 2.0259490000       -0.4563600000       -0.6044100000
O                 1.6656150000        1.9175030000       -0.1802390000
F                -1.6072850000       -1.4727000000       -1.1197230000
F                -0.2838300000       -1.8321350000        0.5372280000
F                -2.1446140000       -0.8021260000        0.8524650000
H                 1.9950360000        1.9338330000       -1.0904870000


