%mem=28GB
%chk=2003846667223680600001_r12_insertion_R_3_2_1_IRC_F
%nprocshared=8
#P M062X/Def2TZVPP ! ASE formatted method and basis
Symm(None)
scf(xqc)
pop(None)
geom(AllCheck,NoKeepConstants)
guess(Read)
irc(RCFC,forward,MaxPoints=100,StepSize=2)

Gaussian input prepared by ASE

0 1
C                -0.8681010000       -1.4668020000       -0.1903180000
C                 0.2634420000        0.0449980000        0.7220270000
F                -0.1099690000       -0.0727970000       -0.8458230000
F                -0.2686420000        1.2066200000        1.0251950000
S                 2.0560220000        0.2142040000        0.5934780000
O                 2.5077160000        0.5671950000        1.8883360000
O                 2.5346580000       -0.9294330000       -0.1081380000
O                 2.2564410000        1.4839610000       -0.3346260000
F                -1.2538800000       -1.8392670000       -1.3835830000
F                -0.1209980000       -2.3976600000        0.2893370000
F                -1.9101520000       -1.1293770000        0.4905020000
H                 2.3613980000        1.1979560000       -1.2521920000


