%mem=28GB
%chk=2003846667223680600001_intra_H_migration_suprafacial_6_12
%nprocshared=8
#P M062X/Def2TZVPP ! ASE formatted method and basis
Symm(None)
scf(xqc)
pop(None)
opt(NoFreeze,TS,CalcAll,NoEigentest,MaxCycle=999)

Gaussian input prepared by ASE

0 1
C                 2.0888920000       -1.8553140000       -1.5973320000
C                 1.8139290000       -0.3610100000       -1.8499050000
F                 2.8585310000        0.1534850000       -2.4309780000
F                 0.8353460000       -0.2051820000       -2.6394090000
S                 1.1483880000        0.3972480000        0.1166920000
O                 1.5691140000        0.6542650000       -0.8482090000
O                 1.8184270000       -1.0185370000        0.6619820000
O                 0.4267440000        0.8451030000        0.7912190000
F                 3.2658560000       -2.1046990000       -0.9586250000
F                 1.1210970000       -2.5169190000       -1.0123520000
F                 2.2602880000       -2.4609980000       -2.7990620000
H                 1.1432990000        1.3902660000       -0.0017380000



