%mem=28GB
%chk=2003846667223680600001_r13_insertion_ROR_3_2_5_6_IRC_F_prod
%nprocshared=8
#P M062X/Def2TZVPP ! ASE formatted method and basis
Symm(None)
scf(xqc)
pop(None)
freq
opt(CalcFC)

Gaussian input prepared by ASE

0 1
C                 0.0746650000       -1.3525140000       -0.7286990000
C                -0.1082970000       -0.3561650000        0.4592280000
F                -1.5671540000       -0.3212840000        0.5356230000
F                 0.6348450000       -0.8479870000        1.4690550000
S                 0.1433520000        1.4796500000        0.4279070000
O                -1.1371400000        1.9548160000        0.7617710000
O                 1.2957810000        1.8632770000        1.1609600000
O                 0.3755950000        1.7190610000       -1.1074390000
F                -0.4710650000       -0.7997830000       -1.7898050000
F                 1.2769920000       -1.8069730000       -1.0866970000
F                -0.6123490000       -2.3997850000       -0.2963990000
H                 1.2999430000        1.9456640000       -1.2834810000


