%mem=28GB
%chk=2003846667223680600001_R_Addition_MultipleBond_5_2_1
%nprocshared=8
#P mp2/6-31G ! ASE formatted method and basis
Symm(None)
scf(xqc)
pop(None)
guess(Mix,Always)
opt(NoFreeze,TS,CalcAll,NoEigentest,MaxCycle=999)

Gaussian input prepared by ASE

0 1
C                -0.0013594614       -1.4181125893        0.2150230154
C                 0.0307454288        0.0084853779        0.1222944271
F                -0.4006255771        0.5584210214       -1.0442771969
F                -0.4635681859        0.7222606095        1.1555476923
S                 1.8850990522       -0.0243315293        0.2436562381
O                 2.1921408401        0.1075365450        1.6123249316
O                 2.4942966310       -0.9967036165       -0.5841066016
O                 2.0263218165        1.3744847865       -0.4726371336
F                 0.2589416933       -2.0348571950       -0.9502219092
F                 0.7786093043       -2.0130975323        1.1347047761
F                -1.2318295626       -1.8637379791        0.5454083946
H                 2.8998467470        1.6825236554       -0.7675629505

1 2 F
1 9 F
1 10 F
1 11 F
2 3 F
2 4 F
2 5 F
5 6 F
5 7 F
5 8 F
8 12 F
5 2 1 F


