%mem=28GB
%chk=2003846667223680600001_r12_insertion_R_5_8_12
%nprocshared=8
#P M062X/Def2TZVPP ! ASE formatted method and basis
Symm(None)
scf(xqc)
pop(None)
opt(NoFreeze,TS,CalcAll,NoEigentest,MaxCycle=999)

Gaussian input prepared by ASE

0 1
C                -0.6574770000       -1.3399490000        0.2556270000
C                 0.1047260000       -0.0589360000       -0.2163020000
F                -0.0514470000        0.0791470000       -1.5422520000
F                -0.5005500000        1.0182080000        0.2847870000
S                 1.8436760000       -0.0656070000        0.2043890000
O                 2.0021990000       -0.2089140000        1.5233000000
O                 2.5577760000       -0.7104660000       -0.7396960000
O                 2.0540610000        2.0828470000       -0.2197350000
F                -1.6312090000       -1.6767010000       -0.5574630000
F                 0.1363400000       -2.3940440000        0.3377260000
F                -1.1958660000       -1.1925520000        1.4508870000
H                 2.7857090000        1.3465580000        0.1129320000

1 2 F
1 9 F
1 10 F
1 11 F
2 3 F
2 4 F
2 5 F
5 6 F
5 7 F
5 8 F
8 12 F


