%mem=28GB
%chk=2003846667223680600001_r12_insertion_R_1_2_3
%nprocshared=8
#P M062X/Def2TZVPP ! ASE formatted method and basis
Symm(None)
scf(xqc)
pop(None)
opt(NoFreeze,TS,CalcAll,NoEigentest,MaxCycle=999)

Gaussian input prepared by ASE

0 1
C                -0.7091410000       -1.0641750000       -0.1231540000
C                 0.3018540000       -0.1206010000        0.8131900000
F                -0.9452360000        0.6935210000       -0.8058830000
F                -0.2987960000        0.3919640000        1.7810180000
S                 2.0124520000        0.0650080000        0.5036630000
O                 2.5573130000        0.9099950000        1.5093020000
O                 2.5607140000       -1.2311370000        0.2314620000
O                 1.9773180000        0.8824670000       -0.8353510000
F                -0.3350960000       -1.2587520000       -1.3403380000
F                -0.4364160000       -2.3811790000        0.4747710000
F                -1.9680740000       -0.9582990000        0.1178550000
H                 2.7310480000        0.9507810000       -1.4323430000

1 2 F
1 9 F
1 10 F
1 11 F
2 3 F
2 4 F
2 5 F
5 6 F
5 7 F
5 8 F
8 12 F


