%mem=28GB
%chk=2003846667223680600001_r12_insertion_R_8_5_2_IRC_R
%nprocshared=8
#P M062X/Def2TZVPP ! ASE formatted method and basis
Symm(None)
scf(xqc)
pop(None)
geom(AllCheck,NoKeepConstants)
guess(Read)
irc(RCFC,reverse,MaxPoints=100,StepSize=2)

Gaussian input prepared by ASE

0 1
C                -1.1408900000       -0.9694690000        0.0100890000
C                -0.4431570000        0.4125060000       -0.2661150000
F                -0.4807780000        0.6833200000       -1.5742380000
F                -1.0792300000        1.3773870000        0.3902890000
S                 1.3274300000        0.4410280000        0.2427040000
O                 1.3650830000        0.3871900000        1.6529770000
O                 2.0237780000       -0.4579490000       -0.6066400000
O                 1.6664190000        1.9165560000       -0.1828630000
F                -1.5989160000       -1.4758150000       -1.1217780000
F                -0.2858300000       -1.8295770000        0.5446220000
F                -2.1504380000       -0.8022160000        0.8454530000
H                 1.9932320000        1.9323930000       -1.0940590000


