%mem=28GB
%chk=2003846667223680600001_R_Addition_MultipleBond_5_8_12_IRC_F
%nprocshared=8
#P mp2/6-31G ! ASE formatted method and basis
Symm(None)
scf(xqc)
pop(None)
guess(Read,Mix)
geom(AllCheck,NoKeepConstants)
irc(RCFC,forward,MaxPoints=100,StepSize=2)

Gaussian input prepared by ASE

0 1
C                -0.7207030000       -1.3623240000        0.3028360000
C                -0.1173800000        0.0427580000        0.1470090000
F                -0.3946230000        0.5623040000       -1.1060570000
F                -0.5508050000        0.8941650000        1.1535700000
S                 1.8823420000        0.0450950000        0.2686650000
O                 2.3557820000       -0.7792500000        1.5376560000
O                 2.5280150000       -0.2416680000       -1.2997830000
O                 2.3298260000        1.6844880000        0.0045660000
F                -0.0150670000       -2.2440570000       -0.5141470000
F                -0.6196960000       -1.7811170000        1.6198800000
F                -2.0560070000       -1.3508490000       -0.0798360000
H                 2.7591240000        1.0756870000       -1.1253060000


