%mem=28GB
%chk=2003846667223680600001_R_Addition_MultipleBond_5_2_3_IRC_R_prod
%nprocshared=8
#P mp2/6-31G ! ASE formatted method and basis
Symm(None)
scf(xqc)
pop(None)
guess(Mix,Always)
freq
opt(CalcFC)

Gaussian input prepared by ASE

0 1
C                -1.1776080000       -0.9374940000       -0.2090370000
C                -0.6015570000        0.4396820000        0.1443140000
F                -1.0409560000        1.3951260000       -0.7532840000
F                -0.9377360000        0.7893040000        1.4459940000
S                 1.4409540000        0.4120650000        0.1759090000
O                 1.8905480000        1.0061220000        1.5807420000
O                 2.0324780000       -0.9740200000       -0.3521170000
O                 1.5634780000        1.6540220000       -1.1453190000
F                -0.8093520000       -1.2862850000       -1.5011020000
F                -0.6978940000       -1.8865360000        0.6864700000
F                -2.5682010000       -0.9032400000       -0.1297940000
H                 2.5228320000        1.7540040000       -1.3870420000


