%mem=28GB
%chk=2003846667223680600001_r12_insertion_R_5_2_3_IRC_R
%nprocshared=8
#P M062X/Def2TZVPP ! ASE formatted method and basis
Symm(None)
scf(xqc)
pop(None)
geom(AllCheck,NoKeepConstants)
guess(Read)
irc(RCFC,reverse,MaxPoints=100,StepSize=2)

Gaussian input prepared by ASE

0 1
C                -0.8472360000       -1.4886630000        0.1852030000
C                 0.1460230000       -0.5057430000        0.8300620000
F                 0.3698350000        0.5791600000       -0.5941160000
F                -0.5001250000        0.2418800000        1.6557960000
S                 1.9896300000        0.2423110000        0.0033200000
O                 2.2232680000        0.9931540000        1.1857310000
O                 2.4478950000       -1.0362520000       -0.3766250000
O                 2.5423430000        1.1549960000       -1.1651410000
F                -0.3266350000       -2.0596550000       -0.8828250000
F                -1.1002060000       -2.4200210000        1.1028170000
F                -1.9910730000       -0.9041450000       -0.1524990000
H                 2.4942210000        2.0825720000       -0.8975270000


