%mem=28GB
%chk=2003846667223680600001_Intra_Diels_alder_R_6_7_IRC_F_prod
%nprocshared=8
#P M062X/Def2TZVPP ! ASE formatted method and basis
Symm(None)
scf(xqc)
pop(None)
freq
opt(CalcFC)

Gaussian input prepared by ASE

0 1
C                -1.1870190000       -0.8808860000        0.0243850000
C                -0.4451260000        0.4684010000       -0.1075520000
F                -0.6696510000        0.9629700000       -1.3359120000
F                -0.9200700000        1.3200340000        0.7942800000
S                 1.3819290000        0.3210430000        0.1208930000
O                 1.8179580000       -0.7188510000       -0.7390460000
O                 1.6581150000        0.3473960000        1.5041640000
O                 1.7964100000        1.7250920000       -0.4516280000
F                -0.9164330000       -1.6644280000       -1.0032020000
F                -0.8234670000       -1.4818470000        1.1467540000
F                -2.4914640000       -0.6502590000        0.0574690000
H                 1.6522770000        1.7688420000       -1.4086080000


