%mem=28GB
%chk=2003846667223680600001_r12_insertion_R_5_2_3_IRC_F_prod
%nprocshared=8
#P M062X/Def2TZVPP ! ASE formatted method and basis
Symm(None)
scf(xqc)
pop(None)
freq
opt(CalcFC)

Gaussian input prepared by ASE

0 1
C                -1.2857870000       -1.0341810000       -0.0245670000
C                -0.3830870000        0.2468740000        0.2497190000
F                -0.7179230000        1.0866250000       -0.7444800000
F                -0.8227160000        0.7024870000        1.4228950000
S                 1.5135650000        0.5306990000        0.0186920000
O                 1.8266750000        1.3324060000        1.1516400000
O                 2.0546980000       -0.7053800000       -0.4035840000
O                 1.7682510000        1.4745530000       -1.2254940000
F                -0.8418640000       -1.6913630000       -1.0735120000
F                -1.4783910000       -1.8861010000        0.9717520000
F                -2.4785530000       -0.5041570000       -0.2977850000
H                 1.6954860000        2.4008140000       -0.9535480000


