%mem=28GB
%chk=2004167628425982700001_well
%nprocshared=8
#P M062X/Def2TZVPP ! ASE formatted method and basis
Symm(None)
scf(xqc)
pop(None)
freq
opt(CalcFC, Tight)

Gaussian input prepared by ASE

0 1
C                -1.0962350000       -0.5732020000        0.7445180000
C                -0.6361510000        0.3905510000       -0.3677060000
F                -1.0476970000       -0.1050260000       -1.5465460000
F                -1.2292600000        1.5792670000       -0.1732250000
S                 1.2114770000        0.7607240000       -0.6299750000
O                 1.6262960000       -0.6707260000       -1.0857840000
O                 2.8618920000        0.1285190000       -0.8280030000
O                 1.3757000000        0.9090010000        0.9509080000
F                -0.3599750000       -1.6767400000        0.7268700000
F                -1.0026210000       -0.0069540000        1.9366270000
F                -2.3660440000       -0.9090730000        0.5412200000
H                 2.3166400000        1.0062830000        1.1517540000


